
##########################################################################
#               Crystallographic Information Format file
#               Produced by PyCifRW module
#
#  This is a CIF file.  CIF has been adopted by the International
#  Union of Crystallography as the standard for data archiving and
#  transmission.
#
#  For information on this file format, follow the CIF links at
#  http://www.iucr.org
##########################################################################

data_0

loop_
  _atom_site_label
  _atom_site_fract_x
  _atom_site_fract_y
  _atom_site_fract_z
  _atom_site_type_symbol
         Zr1       0.500000001538848   0.47222802290420685           0.9445911428684681 Zr       
         Zr2       0.4999999999848429  0.47227597864925674           0.5277238759486137 Zr       
         Zr3       0.4999999998202801  0.055408908074407806          0.527771894134834  Zr       
         Zr4       0.5000000017868957  0.5277719769002115  0.055408856638327696         Zr       
         Zr5       0.50000000012592    0.5277240212113654  0.47227612431399424           Zr       
         Zr6       0.499999999860545   0.9445910923018754  0.4722281060487789  Zr       
         Zr7       0.6035347062311379  0.5327935662791459  1.5190833828329571e-05       Zr       
         Zr8       0.6034706558205167  0.4672480958784873  0.4672480702769259  Zr       
         Zr9       0.6035347148294212  1.5351756886781815e-05        0.5327936138228628 Zr       
         Zr10      0.6035347060460344  0.4672064337546356  0.9999848094499919  Zr       
         Zr11      0.6034706553276102  0.5327519043240236  0.5327519297040127  Zr       
         Zr12      0.6035347146643973  0.9999846481311689  0.4672063861720311  Zr       
         Zr13      0.39646529672946645           0.5327935871966607  1.5233801585298255e-05       Zr       
         Zr14      0.3964652800176006  1.5311164662537182e-05        0.5327935941454555 Zr       
         Zr15      0.3965293452808736  0.46724811816209105           0.467248048084088  Zr       
         Zr16      0.3964652965788753  0.46720641286124254           0.9999847662747962 Zr       
         Zr17      0.3964652801916689  0.9999846887335344  0.46720640585355117           Zr       
         Zr18      0.39652934560835873           0.532751881920948   0.5327519518576883 Zr       
         H1        0.5962526259903702  0.4865799148321275  0.8708613336120271  H        
         H2        0.5962167421397244  0.3841835360244718  0.5133594961351128  H        
         H3        0.5963280395675304  0.12915197683713403           0.6158193682590833 H        
         H4        0.5962526249050634  0.513420085663241   0.1291386667612246  H        
         H5        0.596216741251735   0.6158164639618373  0.48664050363894645           H        
         H6        0.5963280387299313  0.8708480229437872  0.3841806318830799  H        
         H7        0.4036720100122947  0.6158193786269707  0.12915177702710492           H        
         H8        0.40374732178999395           0.8708613911483274  0.4865799791958023 H        
         H9        0.4037833379529799  0.5133597554505118  0.38418354716683156           H        
         H10       0.4036720091984875  0.38418062124223507           0.8708482232951339 H        
         H11       0.4037473211610441  0.12913860876218    0.513420020534774   H        
         H12       0.40378333681219614           0.4866402450229309  0.6158164529887786 H        
         H13       0.4037473081818128  0.5134200690797809  0.12913862481466915           H        
         H14       0.40378319113232397           0.6158164364265046  0.48664051350575704          H        
         H15       0.40367190035693445           0.8708480617223757  0.38418065620790276          H        
         H16       0.40374730719847796           0.4865799313357487  0.870861375511985  H        
         H17       0.40378319046875016           0.3841835635915707  0.5133594863165448 H        
         H18       0.40367189944171317           0.1291519380892651  0.6158193439707427 H        
         H19       0.5963280550499619  0.38418064347134023           0.8708482661913659 H        
         H20       0.5962527503554675  0.12913857020227212           0.5134200072392047 H        
         H21       0.5962167326246423  0.4866402532518801  0.615816424132364   H        
         H22       0.5963280541666143  0.6158193563718064  0.12915173413092604           H        
         H23       0.5962527496363549  0.8708614296500138  0.486579992489246   H        
         H24       0.5962167314639008  0.5133597472348556  0.3841835760273356  H        
         H25       0.8418491030748693  0.5576257181225693  0.8976241698086391  H        
         H26       0.8417401311705908  0.3400940045818745  0.4422576824528797  H        
         H27       0.8420837091409441  0.10243392398855343           0.6601067847464538 H        
         H28       0.8418491020966853  0.44237428214639396           0.10237583033797172          H        
         H29       0.8417401304198443  0.6599059953805364  0.5577423173617976  H        
         H30       0.8420837083556879  0.897566076047745   0.3398932154112357  H        
         H31       0.1579162646680614  0.6601068563615032  0.10243384182275467           H        
         H32       0.15815088999126328           0.8976241016405949  0.5576257048188829 H        
         H33       0.15826014903145647           0.44225781343153564           0.34009413976270214          H        
         H34       0.1579162637385778  0.3398931435381956  0.8975661582802369  H        
         H35       0.1581508894789412  0.10237589839177974           0.4423742951304255 H        
         H36       0.15826014791746784           0.5577421866989329  0.6599058603562177 H        
         H37       0.15815089557588852           0.44237423780898577           0.1023757974674851 H        
         H38       0.1582598795303542  0.6599060116510146  0.5577423635618151  H        
         H39       0.15791629091364912           0.8975661049152008  0.3398932059007457 H        
         H40       0.15815089479792468           0.5576257624930234  0.8976242026154699 H        
         H41       0.15825987900375743           0.3400939882458795  0.442257636237359  H        
         H42       0.1579162900504658  0.1024338951363478  0.6601067942466623  H        
         H43       0.84208373960962    0.33989313215764055           0.8975661918581636 H        
         H44       0.8418491093106518  0.10237586757303022           0.4423742502132034 H        
         H45       0.8417398461308817  0.5577422305728962  0.6599058735950419  H        
         H46       0.8420837387727103  0.6601068676852452  0.10243380824752193           H        
         H47       0.8418491087614316  0.8976241324372758  0.5576257496915591  H        
         H48       0.8417398450831708  0.44225776966415703           0.3400941266263935 H        
         H49       0.7701912735925245  0.5506440860242773  0.938101506479366   H        
         H50       0.7700415902190936  0.38756314719303314           0.4493317845709101 H        
         H51       0.7704767460993062  0.06193892641072672           0.6127306427498991 H        
         H52       0.7701912734708707  0.4493559139516757  0.061898493348488036         H        
         H53       0.7700415902824341  0.6124368527419863  0.5506682154572546  H        
         H54       0.7704767461439559  0.9380610739545144  0.38726935753056885           H        
         H55       0.22952308494319604           0.6127307033051655  0.061938801695353325         H        
         H56       0.22980860451916446           0.9381015234110983  0.5506441637314791 H        
         H57       0.2299585075471915  0.4493320631561004  0.38756331291985857           H        
         H58       0.22952308489277157           0.3872692965330842  0.9380611982140624 H        
         H59       0.22980860477840473           0.06189847695291899           0.4493558364432386 H        
         H60       0.2299585073066367  0.5506679367121995  0.6124366873226714  H        
         H61       0.2298087435589812  0.4493557886301087  0.061898403492732006         H        
         H62       0.22995844724638487           0.6124368951239934  0.55066834748638   H        
         H63       0.2295232714014555  0.9380611616355728  0.3872693221069934  H        
         H64       0.22980874330152987           0.5506442113220043  0.9381015963124238 H        
         H65       0.22995844731259288           0.38756310480061246           0.4493316524750813 H        
         H66       0.22952327149559812           0.06193883881563077           0.6127306781771481 H        
         H67       0.7704768982958817  0.38726925896361675           0.9380612902563444 H        
         H68       0.7701913760074866  0.061898389311124076          0.4493557114597489 H        
         H69       0.7700414557021722  0.5506680673418525  0.6124367276371163  H        
         H70       0.7704768980868943  0.612730740859736   0.06193870961968968           H        
         H71       0.7701913763032333  0.9381016109767126  0.5506442886038122  H        
         H72       0.7700414555189581  0.44933193263771    0.38756327268364604           H        
         H73       0.8548329891682648  0.5438337630765431  0.8426162836701858  H        
         H74       0.8549740570797365  0.29884652822886776           0.45611115517142625          H        
         H75       0.8549103680525366  0.15740856881792897           0.7012795339006391 H        
         H76       0.8548329899828131  0.45616623663904493           0.15738371595105677          H        
         H77       0.8549740573620446  0.7011534718057559  0.5438888450682386  H        
         H78       0.8549103682479411  0.8425914313982046  0.2987204661808743  H        
         H79       0.14508945344164662           0.701279595582399   0.15740851483505028          H        
         H80       0.14516709477555265           0.8426162477597091  0.5438337891940618 H        
         H81       0.145026130281588   0.4561111450115051  0.2988465455508546  H        
         H82       0.1450894538559542  0.298720404417664   0.8425914848677889  H        
         H83       0.14516709489734    0.15738375242251426           0.4561662109082226 H        
         H84       0.14502613060914454           0.5438888548597349  0.7011534545792248 H        
         H85       0.14516697391942646           0.45616623576210014           0.15738368918465528          H        
         H86       0.1450259138085315  0.7011534491331602  0.5438888492147214  H        
         H87       0.14508958569918984           0.8425914579245583  0.2987204916688102 H        
         H88       0.14516697464298806           0.5438337639979666  0.8426163104598167 H        
         H89       0.14502591406022725           0.2988465509318967  0.4561111510334461 H        
         H90       0.1450895858292287  0.157408542313377   0.7012795084397819  H        
         H91       0.8549105941575162  0.29872042717282743           0.8425915147176588 H        
         H92       0.8548329392060683  0.1573837277008491  0.45616620961870386           H        
         H93       0.8549739055142976  0.5438888565932644  0.701153428575754   H        
         H94       0.8549105945282246  0.701279572757102   0.15740848492675094           H        
         H95       0.8548329394521007  0.8426162724951366  0.5438337905081179  H        
         H96       0.8549739058830096  0.45611114329116853           0.29884657160476297          H        
         H97       0.6782163607518359  0.48034703423663977           0.7754908811996052 H        
         H98       0.6784601829195285  0.29513060968480503           0.5196432745718862 H        
         H99       0.6781240166292161  0.22450774814951818           0.704875336095441  H        
         H100      0.6782163615058249  0.5196529658034498  0.22450911936614534           H        
         H101      0.678460182962918   0.7048693907279584  0.48035672560992476           H        
         H102      0.6781240170711933  0.7754922517225569  0.29512466373848256           H        
         H103      0.32187596370264066           0.7048752461493023  0.2245075931453452 H        
         H104      0.3217837210353087  0.7754908371764999  0.4803470560395965  H        
         H105      0.3215400693447921  0.519643223837381   0.2951304954848333  H        
         H106      0.3218759639572136  0.2951247542836152  0.7754924072042773  H        
         H107      0.32178372142357936           0.22450916286669434           0.5196529440779833 H        
         H108      0.3215400700809666  0.48035677624045386           0.7048695042408217 H        
         H109      0.3217834500129686  0.519652960181956   0.22450907650690624           H        
         H110      0.3215396093638226  0.7048693497858289  0.4803567227834359  H        
         H111      0.32187579175660774           0.7754922927510095  0.29512470005713354          H        
         H112      0.3217834507593827  0.4803470398282878  0.7754909239578561  H        
         H113      0.3215396092488756  0.2951306505951047  0.5196432774250146  H        
         H114      0.32187579231092284           0.22450770715327137           0.7048752997931481 H        
         H115      0.6781242258367979  0.295124788434094   0.7754924525681591  H        
         H116      0.6782164707514197  0.22450912292919664           0.5196529404627466 H        
         H117      0.6784601464600286  0.4803567711374855  0.7048694610752584  H        
         H118      0.6781242262796278  0.7048752120326129  0.22450754781578067           H        
         H119      0.6782164710613648  0.7754908770518375  0.48034705965464836           H        
         H120      0.6784601472030721  0.5196432288957131  0.2951305386068905  H        
         H121      0.6038649733683507  0.4752986492947782  0.8162575288306736  H        
         H122      0.6039613723267645  0.34089052998184677           0.5246336082436626 H        
         H123      0.6039251303087749  0.18377683499405625           0.6590752628834451 H        
         H124      0.6038649739861626  0.5247013509104804  0.18374247172224473           H        
         H125      0.6039613724867302  0.6591094702855488  0.47536639173420314           H        
         H126      0.6039251308645215  0.8162231648080909  0.34092473699701126           H        
         H127      0.3960748132164884  0.6590752028334123  0.18377658759014537           H        
         H128      0.39613502503356035           0.8162575144607656  0.47529868043912493          H        
         H129      0.39603869865833713           0.524633675279794   0.3408904377335007 H        
         H130      0.3960748136801069  0.3409247973891412  0.8162234127959986  H        
         H131      0.3961350255131238  0.18374248545393626           0.524701319525294  H        
         H132      0.39603869924516494           0.47536632487819924           0.6591095620485298 H        
         H133      0.3961348665689291  0.5247013491611232  0.18374244697317588           H        
         H134      0.3960384458674576  0.6591094439666385  0.4753663832770558  H        
         H135      0.3960747130356565  0.8162231865978988  0.34092475757453106           H        
         H136      0.39613486751797367           0.4752986510743506  0.8162575534781072 H        
         H137      0.3960384461830008  0.340890556206802   0.5246336166930006  H        
         H138      0.39607471363258184           0.18377681321771613           0.6590752423167152 H        
         H139      0.6039253437814083  0.3409248166282876  0.8162234392642665  H        
         H140      0.603865137756707   0.18374246376857284           0.524701320250527  H        
         H141      0.6039614878785562  0.47536631444241023           0.6591095341994334 H        
         H142      0.6039253443301693  0.6590751836224918  0.1837765611943962  H        
         H143      0.6038651380558144  0.8162575360994987  0.4752986797400926  H        
         H144      0.6039614885007277  0.5246336856949441  0.34089046555447866           H        
         H145      0.706413352087996   0.513108793653899   0.7565060970262029  H        
         H146      0.7064134336363971  0.24349393376115008           0.48689119320991797          H        
         H147      0.7063681677544948  0.24340075690107596           0.7565994205123237 H        
         H148      0.7064133539168477  0.48689120589035717           0.24349390273020435          H        
         H149      0.7064134352930781  0.7565060663621316  0.5131088070413917  H        
         H150      0.7063681693285381  0.7565992432955057  0.2434005793186655  H        
         H151      0.29363182952464584           0.7565992528140552  0.24340059299398342          H        
         H152      0.29358656510820574           0.7565060567635405  0.5131088074290423 H        
         H153      0.29358665119639865           0.48689120408628245           0.24349388966824656          H        
         H154      0.293631831222566   0.2434007473164776  0.7565994068209942  H        
         H155      0.29358656657394594           0.24349394333458743           0.48689119285704   H        
         H156      0.2935866528942975  0.5131087954197027  0.7565061100325248  H        
         H157      0.9395664880135077  0.5143023223168738  0.8002892722732059  H        
         H158      0.9397188105806671  0.2861049829641828  0.48589695301594554           H        
         H159      0.9395833882209355  0.19978636063817465           0.7139808937028559 H        
         H160      0.9395664887359559  0.4856976777077828  0.19971072761021477           H        
         H161      0.9397188111455929  0.7138950169534614  0.5141030469161036  H        
         H162      0.9395833885989948  0.8002136393767402  0.28601910639959033           H        
         H163      0.06041642162415294           0.7139808217581965  0.19978638169153193          H        
         H164      0.06043349142854962           0.8002892286562586  0.5143022749643466 H        
         H165      0.06028123287054033           0.48589684721294635           0.28610492800464465          H        
         H166      0.0604164223424279  0.2860191780935228  0.8002136182320146  H        
         H167      0.060433491691545646          0.1997107714141336  0.485697725002013  H        
         H168      0.060281233245198275          0.5141031528532202  0.7138950721392745 H        
         H169      0.060433522179009144          0.4856976240876629  0.19971070284827433          H        
         H170      0.06028119810725018           0.7138950480418687  0.5141031014293724 H        
         H171      0.06041661816823405           0.8002136630925033  0.28601907807379806          H        
         H172      0.06043352281732956           0.5143023758549801  0.8002892969996114 H        
         H173      0.06028119865194318           0.2861049518460336  0.4858968984592399 H        
         H174      0.060416618474135715          0.19978633696608014           0.7139809219979651 H        
         H175      0.939583569228752   0.28601914857669114           0.8002136433902468 H        
         H176      0.9395664990092533  0.1997107475779339  0.4856976721132347  H        
         H177      0.9397187662259903  0.5141032064905102  0.7138951022025162  H        
         H178      0.9395835697669419  0.7139808513200305  0.19978635649746682           H        
         H179      0.9395664994686744  0.8002892524617103  0.5143023277987827  H        
         H180      0.9397187666906046  0.4858967935377721  0.28610489790429683           H        
         C1        0.6393205249314142  0.5120259121447474  0.9301631959077072  C        
         C2        0.6393073901318675  0.4181329299512083  0.48796523562411326           C        
         C3        0.6393795318520272  0.06983242546350933           0.5820080474038836 C        
         C4        0.639320519438864   0.4879740869685536  0.06983680393105679           C        
         C5        0.6393073892863539  0.5818670696971895  0.5120347641301223  C        
         C6        0.6393795297862129  0.9301675745982215  0.417991952665084   C        
         C7        0.36062050190267886           0.582008133893271   0.0698322841957685 C        
         C8        0.3606795528602745  0.9301632262449737  0.5120259595180559  C        
         C9        0.36069278763181617           0.48796550633754765           0.4181330314366496 C        
         C10       0.3606204985783762  0.4179918660951324  0.9301677155575035  C        
         C11       0.36067955073567415           0.06983677394343178           0.4879740407025247 C        
         C12       0.3606927833951822  0.5120344929301569  0.5818669679820134  C        
         C13       0.3606795224661006  0.48797397164810563           0.06983677407412611          C        
         C14       0.3606926527663918  0.5818671582016693  0.5120348788816318  C        
         C15       0.3606205138964431  0.9301675995146335  0.417991864315809   C        
         C16       0.3606795204166856  0.512026028391455   0.9301632258113649  C        
         C17       0.36069265403429424           0.4181328408388077  0.4879651202509258 C        
         C18       0.36062051211942747           0.06983240057094102           0.5820081357607368 C        
         C19       0.6393794604565252  0.4179917772806231  0.9301677440272381  C        
         C20       0.6393204073305885  0.06983674702332578           0.4879739264941369 C        
         C21       0.6393071739163031  0.5120346068453117  0.5818670556328568  C        
         C22       0.6393794569885853  0.5820082228975039  0.06983225580999874           C        
         C23       0.6393204049476849  0.9301632531579203  0.5120260736873966  C        
         C24       0.6393071703309295  0.4879653926171618  0.41813294394490513           C        
         C25       0.6796570386031854  0.5176524724942803  0.9064757184660777  C        
         C26       0.679598614646688   0.3888198447501922  0.4823056774865629  C        
         C27       0.6797667018999078  0.09352448805461458           0.6113022473064847 C        
         C28       0.6796570427572831  0.482347529355727   0.09352428229980583           C        
         C29       0.6795986167758364  0.6111801547779944  0.5176943215740237  C        
         C30       0.6797667039858283  0.9064755115053429  0.3886977531129577  C        
         C31       0.32023310314206066           0.6113022592863802  0.09352434530981196          C        
         C32       0.3203426969672836  0.9064757351613871  0.5176524853919274  C        
         C33       0.32040120569747654           0.482306055540552   0.38882000128769534          C        
         C34       0.3202331068012263  0.3886977396666222  0.9064756553428701  C        
         C35       0.3203426990254887  0.09352426440268745           0.48234751373191975          C        
         C36       0.3204012085421636  0.517693945734085   0.6111799994015638  C        
         C37       0.3203430377689815  0.48234742685421134           0.09352424873221615          C        
         C38       0.32040146943426456           0.6111802250345365  0.5176944204646968 C        
         C39       0.3202333787278054  0.9064755451542427  0.38869768760915874           C        
         C40       0.32034304016987597           0.5176525741036897  0.9064757516956088 C        
         C41       0.3204014707956846  0.3888197747203768  0.482305579028733   C        
         C42       0.32023338050444444           0.09352445444399443           0.6113023127228326 C        
         C43       0.6797668104000385  0.388697671962831   0.9064756939513342  C        
         C44       0.6796572227553591  0.09352423397748685           0.4823474133975733 C        
         C45       0.6795987071242137  0.5176940428055599  0.61118006788224    C        
         C46       0.6797668134499318  0.6113023272169261  0.09352430666569962           C        
         C47       0.6796572253238595  0.9064757655195945  0.5176525854594609  C        
         C48       0.6795987098115969  0.48230595842867396           0.3888199327749267 C        
         C49       0.6496342568067124  0.5021318430493458  0.8763784697529048  C        
         C50       0.6496005292535894  0.374196920713009   0.4978035076560988  C        
         C51       0.6497367984978666  0.12362849155922809           0.6258472670299343 C        
         C52       0.6496342531978301  0.49786815521896444           0.12362152916817565          C        
         C53       0.6496005258090894  0.6258030801784566  0.5021964939587109  C        
         C54       0.6497367963315259  0.8763715090772003  0.3741527326029322  C        
         C55       0.35026346269989395           0.6258473782071837  0.12362824052049445          C        
         C56       0.3503659888423337  0.8763785378688307  0.502132035311148   C        
         C57       0.35039986337220547           0.49780357072942955           0.3741968625222128 C        
         C58       0.350263458556199   0.3741526227306552  0.8763717584318512  C        
         C59       0.35036598711186484           0.12362146260460857           0.49786796556558244          C        
         C60       0.35039986122365124           0.5021964282869479  0.625803137275344  C        
         C61       0.3503653533861694  0.497868291417524   0.12362157482759427           C        
         C62       0.35039907810400284           0.6258029920957046  0.5021963549300896 C        
         C63       0.35026281081600247           0.8763714570057273  0.3741528190662177 C        
         C64       0.35036535079628467           0.5021317072781205  0.8763784242118793 C        
         C65       0.3503990749719978  0.37419700870917305           0.4978036466153136 C        
         C66       0.35026280905195023           0.12362854353099238           0.625847180643726  C        
         C67       0.6497369390595876  0.3741527083136104  0.8763717105856016  C        
         C68       0.6496344083378152  0.12362151122529363           0.49786810375993973          C        
         C69       0.6496005371744392  0.5021962876245858  0.6258030476051509  C        
         C70       0.6497369360251796  0.6258472922378662  0.12362828862322453           C        
         C71       0.6496344056330815  0.8763784894421937  0.5021318975827199  C        
         C72       0.6496005349870739  0.49780371136202817           0.3741969521804838 C        
         C73       0.6878536364007224  0.5060496198778982  0.8530030364443717  C        
         C74       0.6878874775167844  0.3469158827615537  0.49386390684936776           C        
         C75       0.6879432681908844  0.1470135579452278  0.653105721772677   C        
         C76       0.6878536416196789  0.4939503817467989  0.1469969635902485  C        
         C77       0.687887483488647   0.6530841154974569  0.5061360909379657  C        
         C78       0.6879432715166353  0.8529864419287937  0.3468942792534253  C        
         C79       0.31205607401364466           0.653105518645929   0.14701346011107636          C        
         C80       0.3121457748510751  0.8530029642820123  0.506049364154079   C        
         C81       0.31211197832661797           0.4938643467770365  0.3469161318859093 C        
         C82       0.31205608075385677           0.34689447925421074           0.8529865403002703 C        
         C83       0.3121457777024001  0.14699703557706145           0.4939506350475154 C        
         C84       0.312111980848292   0.5061356537930227  0.6530838688708386  C        
         C85       0.31214674798327224           0.4939500543716791  0.14699684863764031          C        
         C86       0.31211290725112967           0.6530843269903023  0.5061364138846586 C        
         C87       0.3120571249956824  0.8529865558560321  0.3468940681428463  C        
         C88       0.31214675286407995           0.5060499471615534  0.8530031513445829 C        
         C89       0.3121129135371768  0.3469156710474226  0.49386358360360777           C        
         C90       0.3120571281103785  0.14701344411317116           0.6531059326797499 C        
         C91       0.687943520669383   0.34689426496646064           0.8529866589185111 C        
         C92       0.6878538358548587  0.14699692359762892           0.49395030977616755          C        
         C93       0.6878876335964438  0.5061359746408339  0.6530840782113675  C        
         C94       0.6879435253514524  0.6531057336502242  0.14701334121201196           C        
         C95       0.6878538400210413  0.8530030760891113  0.5060496887279888  C        
         C96       0.6878876365675516  0.4938640261243413  0.34691592270482585           C        
         C97       0.7597867807528873  0.5259841229170258  0.8605825897201375  C        
         C98       0.7598164367355682  0.33460551923582804           0.47392420912940136          C        
         C99       0.7598926307862068  0.13944351349821726           0.6654733687980854 C        
         C100      0.7597867772927449  0.47401587488574354           0.13941741052281065          C        
         C101      0.7598164314596969  0.6653944833848163  0.52607579350079    C        
         C102      0.759892628189768   0.860556486210137   0.33452662951217643           C        
         C103      0.2401080012734964  0.6654736315279358  0.1394433294619491  C        
         C104      0.24021401312188562           0.8605826219720712  0.5259844406385759 C        
         C105      0.2401844984157127  0.4739240013273404  0.33460529878125067           C        
         C106      0.2401079955787106  0.334526371363707   0.8605566705365122  C        
         C107      0.24021401156199218           0.13941737776096944           0.4740155604910585 C        
         C108      0.24018449719424828           0.5260759976434553  0.6653946996890804 C        
         C109      0.24021241344636882           0.4740160922751717  0.1394174395778169 C        
         C110      0.2401827626648264  0.6653942972368236  0.5260755753222561  C        
         C111      0.24010655840359618           0.8605564520113139  0.3345268146305366 C        
         C112      0.24021241029069867           0.525983905757938   0.8605825606788392 C        
         C113      0.24018275675971826           0.33460570543439405           0.4739244274237128 C        
         C114      0.24010655655654617           0.13944354764996578           0.6654731837722595 C        
         C115      0.7598928232028415  0.3345265556981701  0.8605566400550294  C        
         C116      0.759786796803757   0.13941740911647552           0.47401577816607193          C        
         C117      0.7598163136642507  0.5260757773021847  0.6653945110976931  C        
         C118      0.7598928199541769  0.6654734464551209  0.1394433601691831  C        
         C119      0.75978679348362    0.8605825907493659  0.5259842236122034  C        
         C120      0.7598163120756368  0.4739242215185049  0.3346054872712547  C        
         C121      0.7879641118520998  0.5422270800867437  0.8918036356503777  C        
         C122      0.7878987959492092  0.3496214988091481  0.45767860351494055           C        
         C123      0.7881377528308543  0.10823242295655676           0.6505257192420068 C        
         C124      0.7879641153809552  0.4577729213638014  0.10819636527209774           C        
         C125      0.7878988002578826  0.6503785005197888  0.5423213951701948  C        
         C126      0.7881377552033798  0.8917675763274634  0.3494742810830762  C        
         C127      0.21186172920065527           0.6505256911240382  0.10823233360721045          C        
         C128      0.21203540727639708           0.8918035979416975  0.5422269888289938 C        
         C129      0.21210086324151498           0.4576788941584628  0.3496217099464762 C        
         C130      0.21186173394420607           0.3494743079872056  0.8917676671826464 C        
         C131      0.21203540928326792           0.10819640154340675           0.45777301043258034          C        
         C132      0.2121008647026026  0.5423211067906704  0.6503782901267888  C        
         C133      0.21203632816631515           0.45777275129298084           0.10819631085352574          C        
         C134      0.21210166026298422           0.6503786176844472  0.5423215659411911 C        
         C135      0.21186268384960985           0.8917676317470985  0.349474166985822  C        
         C136      0.21203633135086034           0.5422272500848635  0.8918036900782286 C        
         C137      0.21210166497915503           0.3496213815529574  0.4576784326445942 C        
         C138      0.2118626857682519  0.10823236760259435           0.6505258332412277 C        
         C139      0.7881378269449781  0.3494741909625239  0.8917677268312325  C        
         C140      0.7879641462375166  0.10819634926598058           0.4577728406661068 C        
         C141      0.787898678860615   0.5423212754657969  0.6503784045979693  C        
         C142      0.7881378300830325  0.6505258085220946  0.108232273929769   C        
         C143      0.7879641494228867  0.8918036501547353  0.5422271582488509  C        
         C144      0.7878986806685736  0.45767872562500794           0.34962159559925243          C        
         C145      0.7487037923472021  0.5383550469107831  0.9142501577204224  C        
         C146      0.7486121113634249  0.3759451988236723  0.46159215947698845           C        
         C147      0.7488848334619554  0.08577723969664855           0.6242445414011898 C        
         C148      0.7487037893998386  0.4616449517589409  0.08574984196709588           C        
         C149      0.7486121086697409  0.624054801830932   0.5384078415148728  C        
         C150      0.7488848320732179  0.914222760589937   0.37575545797583854           C        
         C151      0.2511153137648494  0.624244635568751   0.08577707214362006           C        
         C152      0.2512963443997937  0.9142501987747516  0.5383551691283851  C        
         C153      0.25138828452451306           0.4615923329169843  0.3759452867421603 C        
         C154      0.251115310201848   0.37575536536026805           0.9142229275226512 C        
         C155      0.25129634305209714           0.08574980155252215           0.461644831684923  C        
         C156      0.25138828301566973           0.5384076660304584  0.624054712448367  C        
         C157      0.2512959168155702  0.4616449619141403  0.08574982081831034           C        
         C158      0.25138760860760473           0.6240547762569195  0.5384078336740198 C        
         C159      0.251114874460752   0.9142227796183167  0.3757554893328734  C        
         C160      0.2512959150884389  0.5383550370628438  0.9142501789341068  C        
         C161      0.2513876063367641  0.3759452243019969  0.4615921671921981  C        
         C162      0.25111487338162264           0.0857772206604669  0.624244510134425  C        
         C163      0.7488849868298092  0.3757553951248683  0.9142229507651581  C        
         C164      0.748703948932646   0.08574978283178815           0.46164484241014203          C        
         C165      0.7486120010740556  0.5384076564372406  0.6240546847884518  C        
         C166      0.7488849842921611  0.6242446056364006  0.08577704901113768           C        
         C167      0.7487039467739203  0.9142502175459063  0.5383551585856932  C        
         C168      0.7486119995813052  0.4615923425795485  0.37594531446568275           C        
         C169      0.8006567362954438  0.5285369194671647  0.8367301704045773  C        
         C170      0.8007888867911571  0.3082329503082223  0.4714055896263393  C        
         C171      0.800732748033229   0.1632878012221639  0.6918531605113802  C        
         C172      0.8006567383725778  0.47146308141300947           0.16326983069874781          C        
         C173      0.8007888898295138  0.6917670492027018  0.5285944090321333  C        
         C174      0.8007327492302498  0.8367121980624646  0.3081468393064162  C        
         C175      0.19926663877712453           0.691852975920461   0.16328773160854568          C        
         C176      0.19934284167021965           0.8367300967640587  0.5285366981654214 C        
         C177      0.19921080527908702           0.47140584055359464           0.30823315035786536          C        
         C178      0.19926664182142176           0.30814702370283376           0.8367122693864254 C        
         C179      0.19934284244944936           0.16326990257033147           0.47146330150434335          C        
         C180      0.19921080565345478           0.528594159595657   0.6917668488888988 C        
         C181      0.19934350021375963           0.47146291015438463           0.16326982180074454          C        
         C182      0.19921135504961543           0.691767212289763   0.5285945775604498 C        
         C183      0.19926750477355407           0.8367121980703665  0.30814667686766345          C        
         C184      0.19934350237718113           0.5285370907141421  0.8367301792014098 C        
         C185      0.1992113584296198  0.30823278696159273           0.47140542095685317          C        
         C186      0.19926750583289074           0.16328780111208577           0.6918533227645561 C        
         C187      0.8007331030293652  0.30814685791492197           0.8367122735296966 C        
         C188      0.8006569187138687  0.1632698961522903  0.47146313090494574           C        
         C189      0.8007889565658132  0.5285943255809094  0.691767009111034   C        
         C190      0.8007331048456525  0.6918531422122116  0.1632877274115561  C        
         C191      0.8006569203924618  0.8367301031297332  0.5285368683223873  C        
         C192      0.8007889573573879  0.47140567476949363           0.3082329903027308 C        
         C193      0.7727930368616821  0.5122686451684659  0.8063122389798758  C        
         C194      0.7729680164989022  0.29408668904220814           0.48771230190520143          C        
         C195      0.7728149099076091  0.19369816293857164           0.7059784177762234 C        
         C196      0.7727930365513372  0.4877313555152324  0.19368776149889727           C        
         C197      0.7729680144954384  0.7059133114388733  0.5122876985759537  C        
         C198      0.7728149098840106  0.8063018367366287  0.29402158252924376           C        
         C199      0.22718538214714573           0.7059785092682445  0.19369799152805497          C        
         C200      0.2272074376881387  0.8063122734735619  0.5122688570634316  C        
         C201      0.22703258276740493           0.48771204279401614           0.294086475486984  C        
         C202      0.22718538062157845           0.29402149102045433           0.8063020086160859 C        
         C203      0.227207437693158   0.19368772622788663           0.48773114234423354          C        
         C204      0.22703258364995968           0.5122879586243263  0.7059135252157682 C        
         C205      0.2272067432669305  0.48773151071908855           0.1936878100441653 C        
         C206      0.22703175758078833           0.705913203854939   0.5122875420042666 C        
         C207      0.22718485815689643           0.806301793370873   0.2940216917248385 C        
         C208      0.22720674281217126           0.5122684897981852  0.8063121903567773 C        
         C209      0.2270317553159645  0.2940867967875161  0.4877124587815469  C        
         C210      0.2271848581394484  0.19369820623886538           0.7059783085929665 C        
         C211      0.7728148530324515  0.2940215982694283  0.8063019688661579  C        
         C212      0.77279278423725    0.19368777714614502           0.4877312986178008 C        
         C213      0.7729676521456598  0.5122877997772104  0.7059134148726329  C        
         C214      0.7728148521643242  0.7059784017140557  0.1936980314818889  C        
         C215      0.7727927837796711  0.806312222712706   0.5122687011624737  C        
         C216      0.7729676527005265  0.4877122014406407  0.294086585721042   C        
         C217      0.6997908976471253  0.49328175060505575           0.79931617963854   C        
         C218      0.699962469529684   0.30603066866755935           0.5066887748610149 C        
         C219      0.6997826155245955  0.20069020105968796           0.6939863375236185 C        
         C220      0.699790896220717   0.5067182501463935  0.2006838205794321  C        
         C221      0.6999624700831403  0.693969330593166   0.493311224164568   C        
         C222      0.6997826146962036  0.7993097989482046  0.30601366283887094           C        
         C223      0.30021696747075677           0.6939861533440472  0.2006900943711253 C        
         C224      0.3002088051393962  0.7993160779442922  0.4932815864172621  C        
         C225      0.30003732327923033           0.506688919379015   0.30603070144221756          C        
         C226      0.3002169675270477  0.30601384596421793           0.7993099059720441 C        
         C227      0.30020880431742053           0.20068392212911512           0.5067184133750731 C        
         C228      0.3000373210472082  0.49331108080281183           0.6939692987977709 C        
         C229      0.30020929652026007           0.5067181546348335  0.20068372426414843          C        
         C230      0.30003770825547627           0.6939693323009802  0.49331131293816055          C        
         C231      0.30021757581345504           0.7993098894148808  0.3060136615633998 C        
         C232      0.3002092955708256  0.4932818461114245  0.7993162758923211  C        
         C233      0.3000377093778765  0.3060306669228423  0.5066886860247163  C        
         C234      0.30021757490085393           0.20069011065773135           0.693986338843751  C        
         C235      0.6997828401395529  0.3060138418021745  0.7993100010679801  C        
         C236      0.6997910062595148  0.20068382854362976           0.5067183196308074 C        
         C237      0.699962508605742   0.4933111674087599  0.6939692980970057  C        
         C238      0.6997828391605312  0.6939861576725829  0.20068999910321866           C        
         C239      0.6997910060752165  0.7993161713864138  0.49328167990816174           C        
         C240      0.6999625067109848  0.5066888328868073  0.3060307022417321  C        
         C241      0.6586698629126054  0.49027816497477583           0.8219516896277954 C        
         C242      0.6587623204474111  0.3316294174675825  0.5096572436750917  C        
         C243      0.6587142831277282  0.17806376103619798           0.6683607875132693 C        
         C244      0.6586698608133692  0.5097218338706638  0.17804830946630684           C        
         C245      0.6587623172756614  0.6683705835621556  0.49034275793576715           C        
         C246      0.658714281855264   0.8219362394265569  0.3316392122290903  C        
         C247      0.3412860660784896  0.668360877278755   0.17806353913261744           C        
         C248      0.34133061900137157           0.8219517208873334  0.49027836413626913          C        
         C249      0.34123821552747974           0.5096571166479373  0.33162921020490627          C        
         C250      0.3412860626760378  0.33163912354031266           0.8219364600869108 C        
         C251      0.34133061818184    0.17804827951850785           0.5097216364555806 C        
         C252      0.34123821490765355           0.49034288290853967           0.6683707899915068 C        
         C253      0.3413296715096178  0.5097219615699008  0.1780482683962855  C        
         C254      0.34123721254829176           0.6683704105066074  0.49034262162786146          C        
         C255      0.3412852528036064  0.821936280912269   0.3316393804998589  C        
         C256      0.3413296696169603  0.4902780373203839  0.8219517307651599  C        
         C257      0.3412372091515269  0.33162959070858417           0.509657380087754  C        
         C258      0.34128525182218317           0.17806371961208528           0.6683606193531721 C        
         C259      0.658714406099646   0.33163929059363345           0.8219365055650918 C        
         C260      0.6586698521332874  0.178048241401131   0.5097217660828121  C        
         C261      0.6587622609217224  0.4903427444672201  0.6683706149354459  C        
         C262      0.6587144040347986  0.6683607097527207  0.1780634937241088  C        
         C263      0.6586698502901913  0.8219517590506414  0.49027823488178557           C        
         C264      0.6587622600680333  0.5096572549568652  0.3316293851621945  C        
         C265      0.8185945944823616  0.5136949431836609  0.7812325283066426  C        
         C266      0.81870587312763    0.26759842578822907           0.48632848272758594          C        
         C267      0.8185982007830559  0.21876080640370857           0.7324617208110005 C        
         C268      0.8185945929664026  0.486305053941862   0.21876747033809193           C        
         C269      0.8187058719937464  0.7324015749045527  0.5136715184905625  C        
         C270      0.8185981992427865  0.7812391947220395  0.2675382781537248  C        
         C271      0.1814018114783541  0.73246157752785    0.21876080031178052           C        
         C272      0.18140549165627806           0.7812324073178395  0.5136947635034684 C        
         C273      0.1812943105878742  0.4863285524833029  0.26759842015103114           C        
         C274      0.1814018099570832  0.2675384235462862  0.7812391988754405  C        
         C275      0.1814054906171284  0.2187675935956636  0.4863052382048922  C        
         C276      0.1812943089460537  0.5136714443005749  0.7324015782590199  C        
         C277      0.1814053389741133  0.48630494842072897           0.21876737571099153          C        
         C278      0.18129405343384697           0.7324015876802639  0.5136716236385395 C        
         C279      0.18140172175318753           0.7812392885401735  0.26753826952828286          C        
         C280      0.18140533733017103           0.5136950488385792  0.7812326229383594 C        
         C281      0.18129405210216992           0.2675984128475201  0.48632837726716427          C        
         C282      0.18140172048351713           0.2187607126951516  0.7324617293835095 C        
         C283      0.8185982663932706  0.26753841183178984           0.781239296043844  C        
         C284      0.8185945809172688  0.21876750120685898           0.486305133722492  C        
         C285      0.8187057729715639  0.5136715480539131  0.7324015888972266  C        
         C286      0.8185982649782294  0.7324615892725465  0.21876070296709063           C        
         C287      0.8185945799578976  0.7812324996165474  0.5136948678665099  C        
         C288      0.8187057714830299  0.4863284488678899  0.26759840961344533           C        
         C289      0.7749461115963641  0.5130966338125419  0.7565157580515166  C        
         C290      0.7749461609676085  0.24348427019775584           0.4869033875751872 C        
         C291      0.7748984034931446  0.24342754897418936           0.7565725621318875 C        
         C292      0.7749461119986687  0.4869033684920083  0.24348424321847878           C        
         C293      0.7749461612613859  0.7565157293585694  0.5130966113476261  C        
         C294      0.7748984037858688  0.7565724503233665  0.24342743873081846           C        
         C295      0.2251015953769235  0.7565725095969443  0.24342750126046658           C        
         C296      0.22505383764955053           0.7565156658848174  0.5130966116222484 C        
         C297      0.22505389435597678           0.4869033667373688  0.24348417680867568          C        
         C298      0.2251015956887714  0.24342748975936848           0.756572499730378  C        
         C299      0.2250538378295933  0.2434843338083021  0.48690338746312956           C        
         C300      0.22505389465998474           0.5130966355122417  0.7565158243953327 C        
         C301      0.9069640894213487  0.5148627244286695  0.7814667661207364  C        
         C302      0.9070633241223095  0.26667810235809364           0.4852261711255276 C        
         C303      0.9069784465305545  0.2185590842120051  0.7333797696401538  C        
         C304      0.9069640889670509  0.48513727771132137           0.2185332346690604 C        
         C305      0.907063323196289   0.7333218967677418  0.5147738277376986  C        
         C306      0.9069784456429727  0.7814409152942179  0.26662023158042064           C        
         C307      0.09302157113302094           0.7333797396816721  0.21855903155806175          C        
         C308      0.09303601256462903           0.7814667494543185  0.5148627356251281 C        
         C309      0.09293683075595469           0.48522602734087017           0.2666780197868621 C        
         C310      0.09302157028115837           0.2666202592043406  0.7814409688915764 C        
         C311      0.09303601160092817           0.21853325022202857           0.4851372630799928 C        
         C312      0.09293683010100487           0.5147739750711826  0.7333219817457874 C        
         C313      0.09303580906183002           0.4851372817240632  0.21853323841235478          C        
         C314      0.09293657465710616           0.7333218966030297  0.5147738242082035 C        
         C315      0.09302144064028788           0.7814409086096495  0.2666202312530272 C        
         C316      0.09303580861866499           0.5148627202981977  0.7814667623017395 C        
         C317      0.09293657358585951           0.2666781026414016  0.48522617489866177          C        
         C318      0.09302143989634923           0.21855909081517216           0.7333797700299068 C        
         C319      0.9069785426620606  0.2666202573786728  0.7814409638653133  C        
         C320      0.9069640938828764  0.2185332554694645  0.4851372682399626  C        
         C321      0.9070632796118047  0.5147739700639884  0.7333219800382124  C        
         C322      0.9069785421292813  0.7333797415955892  0.21855903657995568           C        
         C323      0.9069640928974709  0.7814667441856397  0.5148627303801793  C        
         C324      0.9070632789992098  0.4852260322538621  0.26667802146715053           C        
         C325      0.9530389845262612  0.5153742100847425  0.7576800629731567  C        
         C326      0.9530389981246569  0.24231997680270115           0.484625875309391  C        
         C327      0.9530225770937196  0.24231068412220896           0.7576893611913397 C        
         C328      0.9530389838547745  0.4846257885994662  0.2423199363710861  C        
         C329      0.9530389975512238  0.7576800235873198  0.5153741254156573  C        
         C330      0.9530225762993569  0.7576893163514031  0.24231063843085252           C        
         C331      0.046977422372123386          0.7576892827532067  0.24231060575560281          C        
         C332      0.046960999235249413          0.757680059490685   0.5153741258339445 C        
         C333      0.04696102501195551           0.484625789156003   0.24231997193458343          C        
         C334      0.04697742159081577           0.24231071773525156           0.7576893936756984 C        
         C335      0.046960998413577544          0.2423199407489724  0.4846258747038633 C        
         C336      0.04696102411503875           0.5153742094690712  0.7576800273902282 C        
         O1        0.5886778025645515  0.4893007849416793  0.9204439045052955  O        
         O2        0.5886893266208041  0.4310920367836569  0.5106982694659105  O        
         O3        0.5887332856768428  0.07957621418401721           0.5690048969217986 O        
         O4        0.5886778048124702  0.5106992153522882  0.07955609564194839           O        
         O5        0.5886893268912055  0.5689079632856673  0.4893017305455956  O        
         O6        0.5887332863978512  0.9204237858761505  0.4309951031809018  O        
         O7        0.4112667801302442  0.5690049831749594  0.07957611101142624           O        
         O8        0.4113221772332088  0.9204439486842002  0.489300922246312   O        
         O9        0.4113105881476018  0.5106985924054783  0.4310921946023242  O        
         O10       0.41126678151359175           0.4309950167853753  0.9204238892211178 O        
         O11       0.41132217839706736           0.07955605131151287           0.5106990777413963 O        
         O12       0.41131058987353275           0.48930140794517024           0.5689078056193422 O        
         O13       0.4113220274932072  0.5106991743031926  0.07955606091683695           O        
         O14       0.41131050573137823           0.5689079688916634  0.48930176600329667          O        
         O15       0.41126654704031723           0.9204238164740486  0.430995097933342  O        
         O16       0.4113220285478132  0.48930082582704365           0.9204439392357303 O        
         O17       0.41131050519563545           0.4310920313033864  0.5106982341029849 O        
         O18       0.41126654783838884           0.07957618357804905           0.5690049021319287 O        
         O19       0.5887333883987826  0.43099501003543716           0.9204239214700398 O        
         O20       0.588677991780741   0.07955601895437464           0.5106990379762191 O        
         O21       0.5886895762057415  0.48930144268432474           0.568907810237484  O        
         O22       0.5887333900368273  0.5690049898286142  0.0795760786201239  O        
         O23       0.5886779927384173  0.9204439809815662  0.48930096195000766           O        
         O24       0.5886895776756101  0.5106985576196417  0.43109218996787046           O        
         O25       0.6594408216870947  0.5308308899495445  0.9588197538985925  O        
         O26       0.6594478474034235  0.42802601447234107           0.4691711635251295 O        
         O27       0.6594509680015179  0.0411586817739339  0.5721468397209605  O        
         O28       0.6594408228601051  0.4691691105384424  0.041180246206226574         O        
         O29       0.6594478471038686  0.5719739855757547  0.5308288364556012  O        
         O30       0.6594509682690125  0.958841318111477   0.4278531603119175  O        
         O31       0.34054900113583575           0.5721468865294198  0.04115852675495101          O        
         O32       0.34055906003831404           0.9588198086019853  0.5308309800340818 O        
         O33       0.3405520119575609  0.46917138993104396           0.4280260128649654 O        
         O34       0.34054900167420177           0.4278531132028473  0.9588414732160595 O        
         O35       0.34055906030738775           0.04118019152792567           0.46916901988844817          O        
         O36       0.3405520129006138  0.5308286104934147  0.571973987410558   O        
         O37       0.3405591529497169  0.46916911425796803           0.041180208236419914         O        
         O38       0.34055212543491464           0.5719739453643254  0.5308288299255696 O        
         O39       0.340549004145832   0.9588413530822942  0.42785320313093367           O        
         O40       0.3405591530499223  0.5308308858760895  0.9588197919106785  O        
         O41       0.340552124506831   0.4280260549177484  0.46917117028985855           O        
         O42       0.3405490043392146  0.04115864684965542           0.5721467969305248 O        
         O43       0.6594510236603462  0.42785315649105765           0.9588415122009915 O        
         O44       0.6594409660572468  0.04118015638133674           0.46916902457708237          O        
         O45       0.6594480157967483  0.5308286029163927  0.5719739462228483  O        
         O46       0.6594510239265241  0.5721468431240473  0.04115848781610604           O        
         O47       0.659440966477025   0.9588198436919262  0.5308309753381466  O        
         O48       0.6594480164357442  0.4691713975045752  0.42802605402185345           O        
         O49       0.6146162172595699  0.5142070389339197  0.0283477126715697  O        
         O50       0.6145444613729585  0.5141854519088064  0.48581472392438485           O        
         O51       0.614616301268904   0.9716522683427765  0.48579291378548745           O        
         O52       0.6146162180348738  0.4857929612063847  0.9716522875494058  O        
         O53       0.6145444621435001  0.48581454821660985           0.5141852760081494 O        
         O54       0.614616301853044   0.02834773153870855           0.514207086153239  O        
         O55       0.38538378017245295           0.485792950253453   0.9716522867792111 O        
         O56       0.38538370018374646           0.028347730618805935          0.5142070747070382 O        
         O57       0.38545553827958634           0.4858145586759212  0.5141852865436097 O        
         O58       0.3853837809430096  0.5142070498137395  0.028347713438714638         O        
         O59       0.3853837006523333  0.97165226932804    0.4857929252884334  O        
         O60       0.38545553901689594           0.5141854414824306  0.4858147134261925 O        
         O61       0.49999986178747147           0.44972473469343305           0.9718268426374274 O        
         O62       0.499999864914814   0.5220068028077732  0.5502119068254476  O        
         O63       0.49999985897286403           0.02815638574366199           0.4780457849760911 O        
         O64       0.49999986135902985           0.5502752652705318  0.028173157555235775         O        
         O65       0.4999998646932628  0.4779931974933446  0.44978809314594875           O        
         O66       0.49999985913158146           0.971843614211367   0.5219542148733126 O        
         O67       0.5000001404717607  0.4780458095235803  0.028156471777018632         O        
         O68       0.5000001383699132  0.9718267406164048  0.4497247873455354  O        
         O69       0.5000001358319366  0.5502118594628127  0.5220069115961984  O        
         O70       0.5000001404715007  0.5219541906469071  0.9718435284373259  O        
         O71       0.5000001383012799  0.028173259205309328          0.5502752127154841 O        
         O72       0.5000001359045808  0.4497881405162902  0.4779930883054912  O
_cell_angle_alpha                       119.94068938763203
_cell_angle_beta                        89.99999999800481
_cell_angle_gamma                       90.00000000222643
_cell_length_a                          15.86973667789
_cell_length_b                          49.947055590509
_cell_length_c                          49.94707075088379
loop_
  _symmetry_equiv_pos_as_xyz
         'x, y, z' 
_symmetry_int_tables_number             1
_symmetry_space_group_name_H-M          'P 1'