
##########################################################################
#               Crystallographic Information Format file
#               Produced by PyCifRW module
#
#  This is a CIF file.  CIF has been adopted by the International
#  Union of Crystallography as the standard for data archiving and
#  transmission.
#
#  For information on this file format, follow the CIF links at
#  http://www.iucr.org
##########################################################################

data_0

loop_
  _atom_site_label
  _atom_site_fract_x
  _atom_site_fract_y
  _atom_site_fract_z
  _atom_site_type_symbol
         C1        0.5605693937536852  0.9999988958021357  0.20206101236072374           C        
         C2        0.43939367317954686           0.6415352204920757  0.43939680831360667          C        
         C3        0.20206218249999836           0.9999908675999934  0.5605667374892029 C        
         C4        0.797989815476856   0.3584890693770499  0.7979849405009898  C        
         C5        0.35848721411544004           0.7979823074342307  0.7979879686778697 C        
         C6        0.9999899894565908  0.5605606264151302  0.20205514473377156           C        
         C7        0.6415401126507966  0.4393971842689861  0.4393912022479039  C        
         C8        1.4299812182017994e-06        0.20206243987477496           0.5605678278794658 C        
         C9        0.5605637478139424  0.2020557047302067  0.9999870855585349  C        
         C10       0.7979824836735728  0.7979892030962014  0.35848842866813796           C        
         C11       0.20206682073807153           0.5605716589340921  2.418630273846117e-06        C        
         C12       0.4393996212534259  0.43939110848354707           0.6415351147779986 C        
         C13       0.5606080719036372  0.5606026735877913  0.3584642218562291  C        
         C14       0.43942991096498624           0.7979374926922082  1.2338227409744558e-06       C        
         C15       0.20201430300199752           0.20201711392021027           0.6415120727010782 C        
         C16       0.7979449142618699  0.4394374256095611  9.25044379315178e-06         C        
         C17       0.35846254413505513           0.5606054746180612  0.5605996980708732 C        
         C18       4.889338626656935e-07         0.4394339068494758  0.7979389508906961 C        
         C19       0.6415135638613031  0.20201295072296713           0.20201867326753611          C        
         C20       1.2164757177194932e-05        0.797942858340864   0.43943815262980185          C        
         C21       0.5606023199348811  0.3584642499126977  0.5606087622270397  C        
         C22       0.7979379923833343  0.9999975172689377  0.43943071257343413           C        
         C23       0.2020181811582624  0.6415115519436918  0.20200954972988425           C        
         C24       0.439436757202377   1.2803037079254947e-05        0.7979440395188802 C        
         C25       0.6428919265148342  0.2568561036322697  0.3859453772986741  C        
         C26       0.3571088784117816  0.7431587151714272  0.6140642601184781  C        
         C27       0.1289944828666744  0.7430910342343858  0.3859188786173392  C        
         C28       0.8710010860790746  0.25689503396009655           0.6140656040810792 C        
         C29       0.25689643450922395           0.6140698582860857  0.871005102861255  C        
         C30       0.7430947892243147  0.3859210712261406  0.12899991983316395           C        
         C31       0.7431605172358853  0.6140649702281759  0.3571109422241274  C        
         C32       0.25685093050667673           0.385950988257431   0.6428908667347792 C        
         C33       0.38592091556086633           0.12899340596495634           0.743090913036432  C        
         C34       0.6140655615695644  0.8710021377198018  0.2568949989360868  C        
         C35       0.38594674460715733           0.6428914071729233  0.2568565415743179 C        
         C36       0.6140627565581563  0.3571071390310955  0.7431581010391668  C        
         C37       0.6428920688547864  0.38593447069910647           0.25684238570713985          C        
         C38       0.3571081333095758  0.6140507498104097  0.7431472203239058  C        
         C39       0.12899060248967337           0.38592872846793064           0.7431019860696191 C        
         C40       0.8710044265459824  0.6140792923436774  0.2569078251126399  C        
         C41       0.2568393651635989  0.6428902054075281  0.3859374721939651  C        
         C42       0.7431472315629758  0.35711131372508326           0.6140543485790928 C        
         C43       0.743107916747345   0.129003294438976   0.38593493197981066           C        
         C44       0.256906985242903   0.8710014324948451  0.6140794358355688  C        
         C45       0.38593459869735247           0.2568444104993384  0.6428912351253817 C        
         C46       0.6140506677102907  0.7431451411222975  0.35710684484405436           C        
         C47       0.3859327106577281  0.743102635787583   0.1289935865376271  C        
         C48       0.614077440409766   0.25690709571359716           0.8710016021545963 C        
         C49       0.5575651096080728  0.1727113001400034  0.3409668714205033  C        
         C50       0.4424288714692142  0.7834089279443249  0.6151466918684083  C        
         C51       0.16815588536976067           0.8272904448884897  0.38476821166087694          C        
         C52       0.8319051020935216  0.21659421915729923           0.6591627413524913 C        
         C53       0.21659287914560268           0.6591626333151277  0.8319010217332853 C        
         C54       0.8272920589962868  0.38476692845231175           0.16815383811705303          C        
         C55       0.7834152954697622  0.6151448848552994  0.4424303591500677  C        
         C56       0.1727094447270127  0.34096738901828716           0.5575626203414387 C        
         C57       0.3847705507302349  0.16815700353992508           0.8272900115661961 C        
         C58       0.6591623284024946  0.8319032800481171  0.2165964169988178  C        
         C59       0.3409718708953907  0.5575668903024207  0.17270966032186827           C        
         C60       0.6151454660060569  0.4424272311365932  0.7834117142901158  C        
         C61       0.5575717293060274  0.3848522502347094  0.2165905752936419  C        
         C62       0.44243651783035415           0.6590327391687336  0.8272881630730691 C        
         C63       0.16809580672648528           0.34083627168691033           0.7834051241893594 C        
         C64       0.831845201958043   0.6152308411551765  0.172709598411856   C        
         C65       0.21658721133430478           0.5575707132161678  0.3848563680748195 C        
         C66       0.8272928364596404  0.4424378654493966  0.6590331252684174  C        
         C67       0.783409522641515   0.16809932447710746           0.3408379670209307 C        
         C68       0.17270923429037077           0.8318459798479714  0.6152334104279393 C        
         C69       0.38485714472601923           0.2165885033423829  0.5575732534485995 C        
         C70       0.6590292399466385  0.8272901074251834  0.4424314154926929  C        
         C71       0.34083889004618534           0.7834043646110365  0.1680968006871033 C        
         C72       0.6152324141518645  0.1727105450054521  0.8318441475523626  C        
         C73       0.44244341704232093           0.8272936914869181  0.6590459750949585 C        
         C74       0.5575650295340899  0.21659751708120037           0.38485023249638983          C        
         C75       0.8318525188072685  0.17270469830473908           0.6152312258934715 C        
         C76       0.16808975467285317           0.7833990859101073  0.340824974227988  C        
         C77       0.7834026310946314  0.34082447813742933           0.16809065450071026          C        
         C78       0.17270428443908117           0.6152354917001305  0.8318540749776505 C        
         C79       0.21659419128180274           0.38485533640170544           0.5575652780393843 C        
         C80       0.8272979834778719  0.6590455522631362  0.44244361032386537           C        
         C81       0.6152334104083858  0.8318515344761624  0.17270541486831278           C        
         C82       0.34082632057286577           0.16808902171182205           0.7833981714964451 C        
         C83       0.6590415373871946  0.44243769546793243           0.8272955439156049 C        
         C84       0.384855412377334   0.5575668327391822  0.21659560100600633           C        
         C85       0.4424345261670282  0.6151479948926378  0.7834013650476843  C        
         C86       0.5575593795587779  0.3409549772533293  0.172705855275777   C        
         C87       0.8319137868317187  0.6591762288126263  0.21660099702059252           C        
         C88       0.16814818598701636           0.3847665023880422  0.8272956215751924 C        
         C89       0.7834084382204151  0.4424374281181072  0.6151470773654579  C        
         C90       0.17270428266518986           0.5575556190308788  0.3409543459329705 C        
         C91       0.21659890103942023           0.8319075278673808  0.6591741750701486 C        
         C92       0.8272972053660193  0.1681471373815461  0.38476692294048104           C        
         C93       0.6151469450026021  0.7834046766172704  0.44243320630573496           C        
         C94       0.3409587626646173  0.17270453217755474           0.5575603331210282 C        
         C95       0.6591744006639942  0.21660280903110912           0.8319100678437631 C        
         C96       0.3847691027068423  0.8272948603514766  0.1681490302520745  C        
         C97       0.7021361634830461  0.30247797320611874           0.399469657626164  C        
         C98       0.29786755152599054           0.6975353545862584  0.600540986042251  C        
         C99       0.09690980101617737           0.6974163695975715  0.3995165934429747 C        
         C100      0.9030889833127922  0.302570137394785   0.6004722596509317  C        
         C101      0.30257395469252124           0.6004741890755481  0.9030885671143316 C        
         C102      0.6974192824908164  0.3995157929046801  0.09691412354974711           C        
         C103      0.6975354846780103  0.6005392369408006  0.29786801425596965           C        
         C104      0.30247487054817684           0.39947237674941766           0.7021299375016706 C        
         C105      0.3995200275293349  0.09690913204348    0.6974174913849598  C        
         C106      0.6004704349288124  0.9030884312969972  0.3025696831039818  C        
         C107      0.39947234283330874           0.7021357623290913  0.3024801525901293 C        
         C108      0.6005401635361352  0.2978668254831247  0.6975340815319001  C        
         C109      0.7021343585965109  0.39945805254530115           0.3024655086414844 C        
         C110      0.29786847002959316           0.6005301028848665  0.6975250581193989 C        
         C111      0.09690850653712188           0.3995275037616099  0.6974258443651327 C        
         C112      0.9030897348677625  0.6004826013573993  0.3025820841099405  C        
         C113      0.3024645926583537  0.7021307848656394  0.39946152708447097           C        
         C114      0.6975233188846722  0.2978666663820439  0.6005280278578007  C        
         C115      0.6974312027114132  0.09691498709722149           0.39952609656119903          C        
         C116      0.30258323615920607           0.9030874230815337  0.6004848873011619 C        
         C117      0.39946175336991163           0.3024690183268881  0.7021362105473254 C        
         C118      0.6005286780631685  0.6975225564652169  0.29786581529139666           C        
         C119      0.3995304344452565  0.697428379329808   0.09690886906258826           C        
         C120      0.6004816077322374  0.30258045170432635           0.9030885687288902 C        
         C121      0.7570005196204297  0.30878298029148077           0.4480069479324805 C        
         C122      0.24300472003498647           0.6912393675824835  0.5520171116676937 C        
         C123      0.13911333982718532           0.6910844992036324  0.44808081687433515          C        
         C124      0.86089126141447    0.30889467782261937           0.5519024292120087 C        
         C125      0.3088972438150971  0.5518984331711595  0.8608847446108417  C        
         C126      0.6910841821448155  0.4480779937504569  0.1391135428572154  C        
         C127      0.691237319275763   0.552012851735797   0.2430023472954306  C        
         C128      0.30878444805801625           0.4480042598922679  0.7569937762471627 C        
         C129      0.4480837856511327  0.13911387433562294           0.6910845699705908 C        
         C130      0.5518993638766612  0.8608877240288106  0.3088934847818197  C        
         C131      0.448007704744759   0.7569999343478758  0.3087832626405651  C        
         C132      0.5520180315545232  0.2430043976036713  0.6912382227425447  C        
         C133      0.7569984570581362  0.44798358495382645           0.3087619105861452 C        
         C134      0.24300628622020407           0.5519981565824402  0.6912182155443504 C        
         C135      0.1391159237378339  0.44810415928590236           0.6911055934762791 C        
         C136      0.8608881688897264  0.5519202299133534  0.30891477804670037           C        
         C137      0.3087629212024569  0.756995135397072   0.447984767899596   C        
         C138      0.6912166531763825  0.2430005572828006  0.5519903167141391  C        
         C139      0.6911045196822843  0.13911083989986203           0.4480960147591247 C        
         C140      0.3089180710938832  0.8608872114469347  0.5519214475197789  C        
         C141      0.44798799635955955           0.30876215639330384           0.7570004380943652 C        
         C142      0.5519959295763851  0.6912171669493516  0.24300355733298115           C        
         C143      0.44810332059475744           0.6911046828160416  0.13911280650079524          C        
         C144      0.5519210066651266  0.3089148419350627  0.8608889095747939  C        
         C145      0.5439481744929088  0.0309822698728945  0.2773541697923182  C        
         C146      0.45589972996801087           0.7333979947722548  0.48690632667255707          C        
         C147      0.24631832484096713           0.9689981730636903  0.5128887473667895 C        
         C148      0.7537469601352123  0.2666172781256395  0.7227400373486872  C        
         C149      0.26661638007158217           0.7227396285273769  0.7537514316791907 C        
         C150      0.9689941072972119  0.512883559909041   0.24631351372770657           C        
         C151      0.7333993648440753  0.4869082044705106  0.45589601453069933           C        
         C152      0.03098759654372773           0.27735914000793066           0.5439535269130695 C        
         C153      0.5128839900689961  0.24631033141815079           0.9689890226593953 C        
         C154      0.7227373252146501  0.7537531430264309  0.26662066821107644           C        
         C155      0.27736189953379514           0.5439589690320065  0.030991687441422222         C        
         C156      0.4869068618657705  0.4558903797158393  0.7333947929913369  C        
         C157      0.544102013796191   0.5130940180091031  0.2666020198401004  C        
         C158      0.45605365776662754           0.7226467330764281  0.969017781130263  C        
         C159      0.24625485998710478           0.27726082068606267           0.7333817222791295 C        
         C160      0.7536832961978753  0.4871125919563271  0.03100162512622663           C        
         C161      0.2666012131883258  0.5441027293390713  0.5130908158994258  C        
         C162      0.9690136271428591  0.45604571389430465           0.7226402161725269 C        
         C163      0.733385116388249   0.24624834226720543           0.2772598417678897 C        
         C164      0.031007136445486697          0.75368563910274    0.4871152305669389 C        
         C165      0.5130956876130248  0.2666057068273777  0.5441110865333586  C        
         C166      0.7226395521722602  0.9690082922820265  0.45604183812248966           C        
         C167      0.2772642679413176  0.7333796365345243  0.24624724555221156           C        
         C168      0.4871182373992006  0.03101108327441078           0.7536904883065776 C        
         C169      0.4560575453853798  0.9690211902336445  0.7226520052874935  C        
         C170      0.5440975127785403  0.2666034940419551  0.5130928643068345  C        
         C171      0.753685393140914   0.030998208497069083          0.4871126511901756 C        
         C172      0.24625274052436863           0.7333806049371226  0.27725511207377773          C        
         C173      0.7333831388358271  0.2772539611523952  0.2462454789086879  C        
         C174      0.03100370550848935           0.48711676670763376           0.7536884319651777 C        
         C175      0.26660298071841304           0.5130895547442547  0.5440982575184119 C        
         C176      0.9690168204581168  0.7226459025665226  0.4560493776138858  C        
         C177      0.4871186505082964  0.7536930216100081  0.031007577604137467         C        
         C178      0.2772585450908852  0.24624506713249827           0.7333778428872249 C        
         C179      0.7226458520829012  0.45604668109018714           0.9690118321783341 C        
         C180      0.5130945328432082  0.5441065750787156  0.2666073041250636  C        
         C181      0.45590403310419864           0.48690751296128876           0.733396097474466  C        
         C182      0.5439441976660211  0.2773483507249917  0.03097882381377796           C        
         C183      0.7537494649412477  0.7227458937086527  0.2666193403272502  C        
         C184      0.24631601604573425           0.5128879887393756  0.9690016235909383 C        
         C185      0.7333979142031276  0.4559005864616352  0.4869093256663692  C        
         C186      0.030984110333448056          0.5439486195330595  0.2773530567450597 C        
         C187      0.2666176507696882  0.7537533936528222  0.7227452726155548  C        
         C188      0.9689974759465252  0.24631161120981332           0.5128839912538634 C        
         C189      0.48690819561589327           0.7333931869579969  0.4558948146073468 C        
         C190      0.2773562067599907  0.030988511529771407          0.5439550833719433 C        
         C191      0.7227432553352758  0.26662218730768716           0.7537556961921863 C        
         C192      0.5128826098931423  0.9689924193119123  0.24630742984740245           C        
         C193      0.5880809089488805  8.643595483886571e-06         0.16264028639914138          C        
         C194      0.4119702965573269  0.5746397933846281  0.41197800980944344           C        
         C195      0.16263298369521254           0.9999921981595241  0.5880674760753238 C        
         C196      0.837376214122764   0.4253885635517622  0.83736733431451    C        
         C197      0.42538641501703606           0.8373632125157473  0.8373732658228075 C        
         C198      0.9999909040050234  0.5880652761316538  0.16262808160098993           C        
         C199      0.5746468100413705  0.41198168377681166           0.4119713040095723 C        
         C200      1.1222002100568888e-05        0.16263885945909473           0.588075039810735  C        
         C201      0.5880694241218333  0.16262961916858973           0.9999881243737639 C        
         C202      0.8373653512292197  0.8373767820108413  0.42538729054510976           C        
         C203      0.16264256473631325           0.588077815492717   1.2815539141506935e-05       C        
         C204      0.4119807862193928  0.41196778822489494           0.5746398911326969 C        
         C205      0.5880303012570869  0.5880209639588225  0.4253593137056853  C        
         C206      0.4119194193169755  0.8373588788304296  0.9999913364027081  C        
         C207      0.16262621414888848           0.16263356802278744           0.5746135255378432 C        
         C208      0.837371061588496   0.41193173110771886           7.799624366621587e-06        C        
         C209      0.42535726877659313           0.5880290830010481  0.5880187648207039 C        
         C210      0.9999902287140097  0.4119253516330531  0.8373619032808202  C        
         C211      0.5746144599395524  0.1626275251380267  0.16263760935011118           C        
         C212      1.0740446421779692e-05        0.8373712889712189  0.4119359718526256 C        
         C213      0.5880201224338466  0.4253595283919981  0.5880315760174147  C        
         C214      0.837360426396261   0.9999874035531842  0.4119219780193963  C        
         C215      0.1626352132311465  0.5746122589446947  0.16262232521864317           C        
         C216      0.4119304837896646  1.1897183334279249e-05        0.8373698667737919 C        
         C217      0.6481347213512446  0.9999991342134699  0.18812822242945137           C        
         C218      0.35193688990588323           0.5400657258858947  0.3519428120690637 C        
         C219      0.18811634951770417           0.9999847670102187  0.6481173672968693 C        
         C220      0.811852746063554   0.459930467373074   0.8118440408383456  C        
         C221      0.4599311032628446  0.8118425646514463  0.8118509331684685  C        
         C222      0.9999850713759437  0.6481199301637627  0.18811765867547617           C        
         C223      0.5400698894503871  0.35194907681060694           0.35194026031401004          C        
         C224      1.6480241005540334e-06        0.1881250023663063  0.6481259761222835 C        
         C225      0.6481240651357943  0.1881179238242278  0.9999820478809291  C        
         C226      0.8118449616684169  0.8118534363625753  0.45992902665835256           C        
         C227      0.18812505799162446           0.6481270822128474  1.7410505665229065e-06       C        
         C228      0.3519457174327081  0.35193396292651685           0.5400656141081637 C        
         C229      0.6480635275108921  0.6480554593098814  0.45993431032252174           C        
         C230      0.3518673874189293  0.8118703249085963  9.487354847107732e-07        C        
         C231      0.18814708249332576           0.18815372072379538           0.5400712363961816 C        
         C232      0.8118832224117755  0.35187572067385625           1.5058436977116106e-05       C        
         C233      0.45993575434192385           0.6480647536993456  0.6480559161665546 C        
         C234      2.0940602974071275e-07        0.351873324672528   0.8118755821872781 C        
         C235      0.5400719844193906  0.1881510787492317  0.18815956630220332           C        
         C236      1.721707224918732e-05         0.8118849564461902  0.3518842250219613 C        
         C237      0.6480548366680835  0.4599342787481879  0.6480643937834695  C        
         C238      0.811875763080074   0.999998424935123   0.3518690749685497  C        
         C239      0.1881560656190733  0.5400696156775029  0.1881455815903602  C        
         C240      0.3518758110819657  1.793078780670719e-05         0.8118795897776674 C        
         Cd1       0.6461941130725828  0.14612217659703114           0.2923326351889468 Cd       
         Cd2       0.3537726859142529  0.6462289199974064  0.49999894835437714           Cd       
         Cd3       0.14616919716110863           0.8538323299701882  0.4999998366499891 Cd       
         Cd4       0.853877886700665   0.3538066548652557  0.707669302141731   Cd       
         Cd5       0.35380793430831037           0.707667455048707   0.853877764218424  Cd       
         Cd6       0.8538325900610219  0.5000000050590001  0.14616770991865566           Cd       
         Cd7       0.6462293219065518  0.5000012030248333  0.3537713183459968  Cd       
         Cd8       0.14612371310973415           0.2923306910473677  0.6461930351091202 Cd       
         Cd9       0.5000010138518513  0.14617023961060532           0.8538299826025205 Cd       
         Cd10      0.7076673078847563  0.8538759687719869  0.3538059895292581  Cd       
         Cd11      0.2923342786206341  0.6461935762979235  0.14612396835910862           Cd       
         Cd12      0.5000010742126234  0.35377055768041    0.6462297873356948  Cd       
         Cd13      0.3538178881182896  0.8538880286148616  0.707687776809413   Cd       
         Cd14      0.6462189114457536  0.35378183518280676           0.5000012910073282 Cd       
         Cd15      0.8538426250177577  0.1461575151975226  0.4999999760282829  Cd       
         Cd16      0.1461135685786619  0.6461828017209748  0.29231036688978873           Cd       
         Cd17      0.6461836011680124  0.29231208850816487           0.1461117242247412 Cd       
         Cd18      0.1461589994763914  0.49999992882220473           0.853842569282806  Cd       
         Cd19      0.35378302316940813           0.4999988581130312  0.6462183040427119 Cd       
         Cd20      0.8538881383215547  0.7076898249643496  0.3538169053508708  Cd       
         Cd21      0.5000008744467092  0.8538401188660882  0.14615999649161512           Cd       
         Cd22      0.29231390920038414           0.14611375999068532           0.6461835955992435 Cd       
         Cd23      0.7076878191149631  0.3538164427373546  0.8538862425455931  Cd       
         Cd24      0.5000009490536057  0.646219274347135   0.35378097294589833           Cd       
         H1        0.522524145501337   0.12641470647898898           0.30803357917639773          H        
         H2        0.4774703416875317  0.7854919777916305  0.6038539826334492  H        
         H3        0.18153948369127748           0.8736146217702081  0.39606075116380773          H        
         H4        0.8185874291234626  0.21449572834355543           0.6921536161682025 H        
         H5        0.21449207483717495           0.6921527709061349  0.8185816935013961 H        
         H6        0.8736138489410584  0.3960541631364556  0.18153081756108264           H        
         H7        0.7855005508793979  0.6038483824331025  0.47746977062458223           H        
         H8        0.12641389679706966           0.3080344925971173  0.5225226884356179 H        
         H9        0.39605919872997697           0.18153746339592763           0.8736129257062603 H        
         H10       0.6921526487136986  0.8185848698482834  0.21449721379971579           H        
         H11       0.3080425751449125  0.5225295555881582  0.12641163367184063           H        
         H12       0.6038507375809883  0.47746734052035217           0.7854964587272733 H        
         H13       0.5225320857036894  0.3961475808324371  0.21450801207165776           H        
         H14       0.47747628592254426           0.6919658624998937  0.8735840736374065 H        
         H15       0.1814152080308048  0.3078458147940411  0.7855049914383707  H        
         H16       0.8184644942429313  0.6039407945641904  0.12638630392985964           H        
         H17       0.21450147661366292           0.522529530621444   0.3961503518237666 H        
         H18       0.8735891299625758  0.4774788761372718  0.691966567157118   H        
         H19       0.7855091624575651  0.18141787353797043           0.30784791951591894          H        
         H20       0.1263869110920975  0.8184669685906844  0.6039438678647938  H        
         H21       0.39615120975686136           0.21450344169177832           0.5225320379556984 H        
         H22       0.6919595417953702  0.8735870848843231  0.4774705597798342  H        
         H23       0.30784943799555287           0.78550252826487    0.1814168572999165 H        
         H24       0.6039427519098136  0.1263879026366203  0.818463121463568   H        
         H25       0.4774844655222844  0.8735872877295392  0.6919822873398797  H        
         H26       0.5225239466501866  0.2145174781546755  0.3961415904521519  H        
         H27       0.8184773894998896  0.126384587621444   0.6039454938989528  H        
         H28       0.18140164981687423           0.7854960444916325  0.3078305124961971 H        
         H29       0.7855002337271406  0.3078314789471088  0.18140374880269516           H        
         H30       0.12638417924407108           0.6039490334768685  0.8184808550002751 H        
         H31       0.21451063964703349           0.3961442744763613  0.5225226398384882 H        
         H32       0.8735911705354414  0.6919824260893168  0.47748598996810554           H        
         H33       0.6039478265437569  0.8184771495655581  0.12638578375224976           H        
         H34       0.30783385617829295           0.18140353943531987           0.785494379764948  H        
         H35       0.6919755703310173  0.47747821163650644           0.8735893211367127 H        
         H36       0.396145264033611   0.5225242523300623  0.21451241296651494           H        
         H37       0.47747745630950983           0.6038601091896256  0.7854824308569506 H        
         H38       0.5225170549353185  0.30801807759298366           0.1264124810377579 H        
         H39       0.8186007838621515  0.6921695744008124  0.2145040208338037  H        
         H40       0.18152551051896446           0.3960558191751099  0.87361743815461   H        
         H41       0.7854914412780493  0.47747822125273587           0.6038543180441602 H        
         H42       0.1264114110934723  0.5225142475689636  0.3080178166405445  H        
         H43       0.21450065480688096           0.8185951281333937  0.6921678803724765 H        
         H44       0.8736155872151651  0.18151792806507225           0.396049727369886  H        
         H45       0.6038567892732205  0.785486847447551   0.47747476701832336           H        
         H46       0.30802610930011803           0.12640900383918474           0.5225215830378023 H        
         H47       0.6921681823427152  0.21450608967266643           0.8185983728139219 H        
         H48       0.3960538858998872  0.8736149592806617  0.1815238851832936  H        
         H49       0.7036030644539667  0.2899635845872994  0.3572631863473384  H        
         H50       0.296369901117549   0.6538509339181008  0.5866334707701114  H        
         H51       0.06716694285724083           0.7098824245727245  0.4134523053714837 H        
         H52       0.9327853683652036  0.3462341125569031  0.6426400986458831  H        
         H53       0.3462357822969793  0.6426490113367334  0.9327807911780523  H        
         H54       0.7098797710583252  0.4134479644491827  0.06716684275393632           H        
         H55       0.6538533541252499  0.5866296854233812  0.2963753521786725  H        
         H56       0.2899706533632286  0.3572714448838415  0.7036033506216304  H        
         H57       0.4134561690867499  0.06716668789345931           0.7098855544438502 H        
         H58       0.6426390166280118  0.9327867195792535  0.3462340998918267  H        
         H59       0.3572675634907169  0.7036043524410461  0.28996841741565565           H        
         H60       0.5866319985188407  0.29636808855181523           0.6538497793382737 H        
         H61       0.7036299496277186  0.41336541952222106           0.34614917951351365          H        
         H62       0.2963970333994049  0.6427321927166543  0.7100340919262587  H        
         H63       0.06721311725563002           0.3573542170957709  0.6537622887985484 H        
         H64       0.9328328956733631  0.586546528003191   0.29011808529932276           H        
         H65       0.34614770446538695           0.7036267672416193  0.4133713113789674 H        
         H66       0.7100339100745251  0.29639877361729183           0.6427340605079659 H        
         H67       0.6537691145600324  0.06722183141008176           0.3573559989825622 H        
         H68       0.290121159670153   0.9328342349550008  0.5865528802902936  H        
         H69       0.41337044568787734           0.34615298986118115           0.7036305412632854 H        
         H70       0.6427301099962638  0.7100297347785769  0.2963927554399476  H        
         H71       0.3573593129232327  0.653764961254566   0.06721163939893407           H        
         H72       0.5865460823075764  0.29011630645882164           0.9328317021376881 H        
         H73       0.29640355500596494           0.7100448625345216  0.6427467756493969 H        
         H74       0.7036244717256327  0.3461579356130738  0.4133700928248954  H        
         H75       0.9328368420729717  0.29011061509979363           0.586544166563179  H        
         H76       0.06721045798959661           0.6537563179363634  0.35734323850160543          H        
         H77       0.6537609282289968  0.35734186387607575           0.06721748940906282          H        
         H78       0.2901111561121032  0.5865492895817376  0.9328385372072069  H        
         H79       0.3461544614129404  0.4133745040786754  0.7036216589897498  H        
         H80       0.7100425838842891  0.6427459114212369  0.29640418517747846           H        
         H81       0.586541864550929   0.9328349467739828  0.2901065831139704  H        
         H82       0.3573465604330936  0.06720831518141615           0.6537576677334653 H        
         H83       0.6427434171057289  0.29639929108437524           0.7100393164599621 H        
         H84       0.41337376769317613           0.7036249679580728  0.3461606061902626 H        
         H85       0.2963745886102935  0.5866300960116819  0.653843999880087   H        
         H86       0.7035969990743639  0.3572509214465458  0.2899546281418958  H        
         H87       0.9327897000711082  0.6426543503225366  0.34624237257970086           H        
         H88       0.06716291901835679           0.4134564672541982  0.7098931553385249 H        
         H89       0.6538448321373825  0.29638110850237803           0.5866253585259753 H        
         H90       0.2899601178544053  0.7035968306384224  0.3572570358179326  H        
         H91       0.3462415941311029  0.9327839660327663  0.6426598783124916  H        
         H92       0.7098874049906946  0.06716316900134536           0.41345037620387964          H        
         H93       0.5866275856377472  0.6538418114390037  0.2963730972706997  H        
         H94       0.35725452966492    0.28995835747612164           0.703598783906938  H        
         H95       0.6426520384654674  0.34624122357312687           0.932790491863664  H        
         H96       0.4134592704815112  0.7098943392952898  0.0671626445006505  H        
         H97       0.7993353908507571  0.3428062229018363  0.45623961362932375           H        
         H98       0.20066829394890645           0.6572172848501193  0.54377919505095   H        
         H99       0.11333120554840131           0.6570360606316026  0.4563853082253033 H        
         H100      0.8866654279798919  0.34294085609566793           0.5435938063428903 H        
         H101      0.34294767041048474           0.5435991341253534  0.8866746219343477 H        
         H102      0.6570377006635914  0.45638293581298006           0.11333055080115839          H        
         H103      0.6572150479649389  0.5437793954720294  0.20066706240272392           H        
         H104      0.34280274133537963           0.45624194442243793           0.7993310406705877 H        
         H105      0.456386928197733   0.11332884943334474           0.6570355683480391 H        
         H106      0.5435932273822901  0.8866660844784972  0.34294121850360904           H        
         H107      0.4562429058037115  0.7993367124174583  0.3428065967938049  H        
         H108      0.5437769925347357  0.20066569548665605           0.6572172357224626 H        
         H109      0.7993339316947409  0.45621904873386326           0.34278482673473704          H        
         H110      0.20066900887483832           0.5437592136924484  0.6571986313447888 H        
         H111      0.11332924751419556           0.4564048946575425  0.6570543251929933 H        
         H112      0.8866664924146518  0.5436130474278709  0.3429615667955848  H        
         H113      0.34278344849040093           0.7993316976291609  0.4562216879675219 H        
         H114      0.6571942132005704  0.20066592598716823           0.5437597974026583 H        
         H115      0.657058599748094   0.11333188850459534           0.45640233888030346          H        
         H116      0.342965636560222   0.8866727903061937  0.5436184298909564  H        
         H117      0.4562237085154618  0.3427869117445557  0.7993370292672406  H        
         H118      0.5437562519314048  0.6571969036512314  0.2006648944060712  H        
         H119      0.45640590676769416           0.6570549519523093  0.11332855514764174          H        
         H120      0.5436135971101239  0.34296133420832153           0.8866667418340474 H        
         H121      0.7570523208940262  0.26587422474350464           0.4343263926090734 H        
         H122      0.24292841392027362           0.6774576987783955  0.5090464523313246 H        
         H123      0.16828272058941482           0.7339759570615673  0.49101532683253835          H        
         H124      0.831673947308464   0.3226634013735592  0.5655743690645969  H        
         H125      0.32267013325055943           0.5655797704186443  0.8316702192644879 H        
         H126      0.7339730361709178  0.4910131884479908  0.16828448989258443           H        
         H127      0.6774530712481631  0.5090413544161794  0.24292676507133676           H        
         H128      0.2658834938518617  0.4343341151706471  0.7570536385388285  H        
         H129      0.4910178520645208  0.16828313706575448           0.7339770815469205 H        
         H130      0.5655746602187545  0.8316709762278867  0.32266280125433056           H        
         H131      0.43432682264865324           0.7570510051939433  0.2658743076735915 H        
         H132      0.5090482037780298  0.24292733502303626           0.6774574427390851 H        
         H133      0.7570734355735792  0.49095446460323644           0.32254465102666774          H        
         H134      0.24294821472561146           0.5656707899700776  0.7341208141896807 H        
         H135      0.16833072698685167           0.43442159744868925           0.677334685412484  H        
         H136      0.8317176693185329  0.5089858273880732  0.26602533143455054           H        
         H137      0.32254576455875866           0.7570739455123532  0.4909562770620607 H        
         H138      0.734124910613951   0.24294831753894014           0.565669923076056  H        
         H139      0.6773334113121608  0.1683273981670747  0.4344236086448051  H        
         H140      0.2660281509962445  0.8317169156203298  0.5089860489157252  H        
         H141      0.49095750344003164           0.3225442724442029  0.7570713631816746 H        
         H142      0.5656705298577925  0.7341216547527545  0.24294800590230312           H        
         H143      0.43442337871271103           0.6773339143206536  0.16832824390233636          H        
         H144      0.5089866678144123  0.2660266306757058  0.8317184525043264  H        
         H145      0.24295196337346947           0.7341460738077178  0.5657012001732915 H        
         H146      0.7570698526841686  0.32257155138122645           0.4909763982335269 H        
         H147      0.8317266419309781  0.2660063796336713  0.5089690240872458  H        
         H148      0.16832268057101132           0.6773091478668869  0.4343940010130748 H        
         H149      0.6773067728979089  0.4343931935198354  0.1683224483945253  H        
         H150      0.2660025312088478  0.5089643762809022  0.8317221005653392  H        
         H151      0.32257222777773814           0.49097459279702593           0.757071647978333  H        
         H152      0.7341452165935589  0.5656979022793083  0.24295081405820765           H        
         H153      0.5089663977140296  0.8317239199433362  0.2660028757449322  H        
         H154      0.43439482095269877           0.16832267719571586           0.677308331064335  H        
         H155      0.5657001428770995  0.24295113055067508           0.7341437952583744 H        
         H156      0.4909761092440039  0.7570686345310174  0.3225705443365649  H        
         H157      0.24293052481702473           0.5090286066282562  0.6774317262349493 H        
         H158      0.7570496008970944  0.43429766950084703           0.2658536210096893 H        
         H159      0.8316785507700875  0.5656047537793593  0.32268980390646074           H        
         H160      0.1682778558391223  0.4910373146166137  0.7340019767517422  H        
         H161      0.677426509801477   0.2429302049489121  0.5090201113572116  H        
         H162      0.2658580568589478  0.7570497371503916  0.4343033315299709  H        
         H163      0.3226956860250533  0.8316784294605623  0.5656074740523561  H        
         H164      0.7339923586772925  0.1682759054063437  0.4910301837245121  H        
         H165      0.5090274886757096  0.6774309856021773  0.2429304039800164  H        
         H166      0.4342979787119511  0.2658507064406537  0.7570478544016768  H        
         H167      0.5656038407453854  0.322689345006532   0.8316784955045442  H        
         H168      0.4910362831795312  0.7339985019857467  0.1682757398301414  H        
         H169      0.5474172886860417  0.06225570551297836           0.31734329032800634          H        
         H170      0.45241012236848666           0.769910302814338   0.5147051775649808 H        
         H171      0.25498634043864443           0.9377327608870272  0.48499763054288725          H        
         H172      0.7450746001691236  0.2301003926992452  0.6827808792343981  H        
         H173      0.23010152793228483           0.6827821235317791  0.745083221764899  H        
         H174      0.9377258217432636  0.48499244590749385           0.2549796495196286 H        
         H175      0.7699077690488956  0.5147038065968459  0.4524013756764287  H        
         H176      0.06226227846253963           0.31735186478432775           0.5474299077614005 H        
         H177      0.48499440707925356           0.2549740889388692  0.9377169525769681 H        
         H178      0.6827783068239626  0.7450858088208556  0.23010913025928262           H        
         H179      0.31735439258327647           0.5474381455996337  0.062269291950909515         H        
         H180      0.5146984245297883  0.4523878563300213  0.7698996173199886  H        
         H181      0.5475929389047722  0.48529620622565073           0.23009058937489857          H        
         H182      0.45258562401137    0.6826580969660538  0.9377447305798013  H        
         H183      0.2549278938346076  0.31721932572686745           0.7698990663971673 H        
         H184      0.7450155339520088  0.5150037940476807  0.06226867029519054           H        
         H185      0.23009276378952606           0.5475984409603466  0.4852949269769661 H        
         H186      0.9377393556770364  0.45256989842571044           0.6826476394488358 H        
         H187      0.7699001659751528  0.25491575905352903           0.31721676178958214          H        
         H188      0.06227525989838577           0.7450194822815506  0.5150055555131066 H        
         H189      0.4853043446079371  0.2301005343819944  0.5476128968407289  H        
         H190      0.6826462333940865  0.9377296831731387  0.45256151158573804           H        
         H191      0.31722421473943024           0.7698905589405483  0.25491490396864447          H        
         H192      0.5150084120113679  0.062283091832073485          0.7450268335754503 H        
         H193      0.4525873067352266  0.9377412928032749  0.6826650027520265  H        
         H194      0.5475898300836055  0.23009553561558443           0.48528953676900344          H        
         H195      0.7450256862774075  0.06227128129378766           0.5150083225557788 H        
         H196      0.2549173333337577  0.7698942950401291  0.3172122347051738  H        
         H197      0.769894869094036   0.3172091648898857  0.2549050585248275  H        
         H198      0.062278977613486386          0.5150117855468815  0.7450305298160617 H        
         H199      0.23009825568806477           0.4852888050095006  0.5475954087708423 H        
         H200      0.9377363672566905  0.682655441711733   0.45257211627285193           H        
         H201      0.515013979051289   0.7450381487364165  0.0622861605433791  H        
         H202      0.3172161215997554  0.25490404697165203           0.7698850795914898 H        
         H203      0.6826542747077903  0.4525646598938037  0.9377266323177819  H        
         H204      0.4852978228988362  0.5476098752495163  0.23010572797371132           H        
         H205      0.4524128764718917  0.5147113357595914  0.7699046424009514  H        
         H206      0.5474150844134553  0.3173357525519727  0.06225852465844773           H        
         H207      0.7450851792479635  0.6827888380987001  0.23010594658268724           H        
         H208      0.2549755241094873  0.48499205451029026           0.9377290396257427 H        
         H209      0.7699028703654963  0.45240457682937396           0.5147106156525969 H        
         H210      0.0622657151445968  0.5474267869670137  0.3173440311134325  H        
         H211      0.2301065423460307  0.7450938717258314  0.682789682411182   H        
         H212      0.9377231355461778  0.2549694260157385  0.48498822450802614           H        
         H213      0.5147048738284883  0.7698943768162874  0.45239087252688925           H        
         H214      0.3173465750265232  0.06227264334716878           0.5474358815375094 H        
         H215      0.6827856403923045  0.23011408516573323           0.7450963847662121 H        
         H216      0.48498817687230283           0.9377137227115852  0.25496288528818184          H        
         H217      0.5954738005256883  0.039863562828976254          0.15723793874402764          H        
         H218      0.4045840015510911  0.5618566846628082  0.44445238155381583           H        
         H219      0.11739864830664071           0.9601676058008413  0.5556425467647383 H        
         H220      0.8826217876478287  0.4381854221120582  0.8427509328312215  H        
         H221      0.4381799964878575  0.842744165353092   0.882618149060498   H        
         H222      0.9601620826694302  0.5556367175429985  0.11739380811411163           H        
         H223      0.5618654519965784  0.44445505174967026           0.4045838825252969 H        
         H224      0.03986624684235652           0.1572390139714594  0.5954708117440157 H        
         H225      0.5556408399719177  0.11739708979255158           0.9601572425926643 H        
         H226      0.8427456425187909  0.8826207705074136  0.4381834257477854  H        
         H227      0.15724471509629043           0.5954744611569593  0.03986855599890506          H        
         H228      0.44445474005188856           0.40457711114678246           0.5618600640507452 H        
         H229      0.5954162729015461  0.5555468814790188  0.438142376432787   H        
         H230      0.4045254522430897  0.8427618337339379  0.9601370222170124  H        
         H231      0.11738077548353357           0.1572481569928848  0.5618144360140145 H        
         H232      0.8826060303131845  0.4443620710228405  0.03983616537080012           H        
         H233      0.4381351089603655  0.595415232306941   0.5555412042422987  H        
         H234      0.9601346001783116  0.4045300867464245  0.8427613149505385  H        
         H235      0.5618198987229156  0.11738267398529968           0.1572566666701818 H        
         H236      0.03983772659978424           0.8826050121454799  0.44436244626018245          H        
         H237      0.5555466721533832  0.43813969700995936           0.5954222278703771 H        
         H238      0.8427565034108677  0.9601292838811715  0.40452626114819107           H        
         H239      0.15725560796800814           0.5618175785607985  0.11737848519458945          H        
         H240      0.44435892195174403           0.03984334087705997           0.8826026116232347 H        
         H241      0.40453963748121247           0.9601608696523166  0.8427781576502467 H        
         H242      0.5954035614548638  0.4381458109844653  0.5555587119083357  H        
         H243      0.8825974429272372  0.03981115459453755           0.4443502348118549 H        
         H244      0.11738769818358283           0.5618117332097641  0.15723254560697464          H        
         H245      0.5618167001887762  0.15724081411281415           0.11739069039471715          H        
         H246      0.03981462618773945           0.4443525155130083  0.8825978888094193 H        
         H247      0.43813821806437925           0.5555527514425442  0.5954024961062622 H        
         H248      0.9601602729604238  0.8427777219926192  0.4045429964334793  H        
         H249      0.44434584402493355           0.8825935893905816  0.03981852106222064          H        
         H250      0.15724001030919096           0.1173880286997145  0.5618140892151801 H        
         H251      0.8427724444582543  0.40453914031176125           0.9601527703705125 H        
         H252      0.5555581177130697  0.5954090885528742  0.4381428694158011  H        
         H253      0.40459696532935346           0.4444409309813114  0.561853524726224  H        
         H254      0.5954595287279285  0.1572208290266894  0.039838556334106136         H        
         H255      0.8826127022983951  0.8427669792045307  0.43818868469425176           H        
         H256      0.11740606490181212           0.5556528441002092  0.9601913679897419 H        
         H257      0.5618621640632614  0.4045967311209428  0.44444342958950833           H        
         H258      0.039843284097862905          0.5954578192793215  0.15722336312302213          H        
         H259      0.43818304601628644           0.8826099868869791  0.8427597384541953 H        
         H260      0.9601873589688665  0.11740266577404955           0.5556491697035609 H        
         H261      0.444442992051478   0.5618568329402078  0.4045898160429159  H        
         H262      0.1572285355529938  0.03984328087493751           0.5954616608002221 H        
         H263      0.8427611610434553  0.4381864447929466  0.8826134870434806  H        
         H264      0.5556528531151889  0.9601809964368864  0.11740551051553245           H        
         H265      0.6671571138693829  1.0873832882173298e-05        0.15818036207438738          H        
         H266      0.3329605810597114  0.4911222861028107  0.3329717672758529  H        
         H267      0.15817180657176505           0.9999876769705559  0.6671423392241645 H        
         H268      0.8417624706906145  0.5088774772611204  0.8417501394407606  H        
         H269      0.5088772241533969  0.8417527506776212  0.8417644341713785  H        
         H270      0.9999881325764758  0.6671411693603051  0.15816851852399832           H        
         H271      0.49112777628558413           0.3329765575969915  0.33296432357571726          H        
         H272      1.1501251694868801e-05        0.1581817735196124  0.6671529478338127 H        
         H273      0.6671438582964945  0.15816766628254936           0.9999869399772175 H        
         H274      0.8417489212332396  0.8417605757558053  0.5088758426017924  H        
         H275      0.15818236668535612           0.6671539286361065  1.1614988000104804e-05       H        
         H276      0.33297293088943164           0.33295954596337846           0.49112221563908803          H        
         H277      0.6670403468965781  0.6670270228538036  0.5088776113515138  H        
         H278      0.3328424666583024  0.8418154882619381  0.9999892052255231  H        
         H279      0.15824082661758945           0.15825098845967175           0.49112451322965894          H        
         H280      0.8418362408549873  0.3328586787812274  1.2190475755491802e-05       H        
         H281      0.5088781880197054  0.6670345505997427  0.6670223262429361  H        
         H282      0.9999902889085791  0.33284803813709124           0.8418205892158198 H        
         H283      0.4911258950018119  0.1582391053421708  0.1582510909515287  H        
         H284      1.4261222056254955e-05        0.8418307092155832  0.33285987250152266          H        
         H285      0.6670282924064395  0.5088776367351482  0.667039423655      H        
         H286      0.8418237342682444  0.9999887712019798  0.3328471758110699  H        
         H287      0.15825044387869902           0.4911227067458823  0.15823679767065513          H        
         H288      0.3328556653071224  1.3031380640618339e-05        0.8418295478052155 H        
         H289      0.6414144127422987  0.9599265189348403  0.19282575396270596           H        
         H290      0.3586570489577857  0.5514714412500669  0.318582198684602   H        
         H291      0.232854273683021   0.040035287807718194          0.6814349756330562 H        
         H292      0.7670948356479454  0.44850916138308394           0.8071673826266168 H        
         H293      0.4485094741301549  0.8071653056473206  0.7670916339174781  H        
         H294      0.040039126221686434          0.681433868343175   0.2328595670995527 H        
         H295      0.5514710914077536  0.3185857215253102  0.35865368736694575           H        
         H296      0.9599343091164947  0.19282656881091192           0.6414112150218796 H        
         H297      0.6814377315189415  0.23286041857457346           0.04003601583856472          H        
         H298      0.8071641467691639  0.7670948004154252  0.44850813345411106           H        
         H299      0.19282763555567276           0.6414158104460532  0.9599359462775552 H        
         H300      0.3185868789773931  0.35865393231077514           0.5514742531316964 H        
         H301      0.6413447542532003  0.681416697317612   0.4485295407785233  H        
         H302      0.358585631269171   0.8071719482789081  0.04007185163498084           H        
         H303      0.23290340670675483           0.19283189631995765           0.551489335595343  H        
         H304      0.7671417511014333  0.3185614071867265  0.9599578890048556  H        
         H305      0.44852939307915596           0.6413437996987972  0.6814169338816196 H        
         H306      0.04006890425846089           0.3585900251698966  0.8071746701667332 H        
         H307      0.5514931409458901  0.23290990579631363           0.19283697330888888          H        
         H308      0.9599661464635602  0.7671446707062058  0.318568418256527   H        
         H309      0.6814141715947318  0.44852662312164776           0.6413457761388168 H        
         H310      0.8071751093910391  0.04006838380804021           0.3585862455191192 H        
         H311      0.1928364628159015  0.5514915539749397  0.23290488394999717           H        
         H312      0.3185627257287589  0.9599635974981551  0.7671368956106366  H        
         H313      0.35859199139620324           0.04008527038869584           0.8071740785590619 H        
         H314      0.6413389368448845  0.44852508774945316           0.6814241787193763 H        
         H315      0.7671318558743456  0.9599471385455819  0.3185551515051722  H        
         H316      0.2329164968789516  0.5514943112663592  0.19282987023388892           H        
         H317      0.5514976995643898  0.19283615155780445           0.23292153289566683          H        
         H318      0.9599514160272563  0.31856009256697554           0.7671309144576356 H        
         H319      0.4485250301523929  0.6814243922559052  0.6413378825823286  H        
         H320      0.04007902717040681           0.8071752884746449  0.3585941643527025 H        
         H321      0.3185553729607701  0.7671249270017829  0.9599519993484183  H        
         H322      0.1928356548634649  0.23291479068552956           0.5514952226955425 H        
         H323      0.8071755405609916  0.3585917583519613  0.04008186546114664           H        
         H324      0.6814214566533184  0.6413397399543697  0.4485222074396916  H        
         H325      0.3586630163591434  0.3185748030289039  0.5514759059221881  H        
         H326      0.6414087661934849  0.19282351657231522           0.9599150229037386 H        
         H327      0.767085075760543   0.8071684635013365  0.4485053878440485  H        
         H328      0.23286689109019537           0.6814426793191055  0.0400489933247962 H        
         H329      0.5514755543538021  0.3586596639072155  0.31857836912506865           H        
         H330      0.9599201115369973  0.6414052177753898  0.19282588471513942           H        
         H331      0.4485052195761724  0.7670803144678604  0.8071665159540086  H        
         H332      0.04004913642909493           0.23286893703448738           0.6814397854867326 H        
         H333      0.31857944412206624           0.5514787279346773  0.3586597146830966 H        
         H334      0.19282724222246553           0.959924887809537   0.6414113797622687 H        
         H335      0.80716545585527    0.44850308143783285           0.767081340845466  H        
         H336      0.6814463066581559  0.04004971845716629           0.23287440367901915          H        
         N1        0.6118270712899819  0.19806233689814215           0.34206137110700524          N        
         N2        0.38815956855568007           0.7302984285231024  0.5862905623291963 N        
         N3        0.14394170601171882           0.8019081130190764  0.4136962324739641 N        
         N4        0.8561566564556403  0.26973895014488336           0.6580252770789936 N        
         N5        0.26973532361776253           0.6580192965506306  0.8561456511716297 N        
         N6        0.8019092606123254  0.41369389961859815           0.14393889456962358          N        
         N7        0.7303045605608783  0.5862864139123571  0.3881598050329042  N        
         N8        0.198061445858273   0.3420582095236774  0.6118222974497931  N        
         N9        0.4136974413035508  0.14394092644430592           0.8019082690172674 N        
         N10       0.6580220322293396  0.8561536175250596  0.2697393954709785  N        
         N11       0.34206509141175534           0.611828330737302   0.19806214689213877          N        
         N12       0.5862908145092441  0.3881597526777975  0.7302994637871746  N        
         N13       0.6118426627936858  0.4137109319495909  0.2697006236241671  N        
         N14       0.38817675827029646           0.6579413632103275  0.8019379162618991 N        
         N15       0.14384876616498    0.34197866501985985           0.7302620525233015 N        
         N16       0.8560626718270541  0.5863053601855822  0.19809234967315553           N        
         N17       0.26969833043265506           0.6118392941742111  0.4137117937395666 N        
         N18       0.8019403390134937  0.38817590983725003           0.6579393153375049 N        
         N19       0.7302658861247503  0.14385150305017147           0.34197769780525744          N        
         N20       0.198091451430051   0.8560587867589222  0.586304533470872   N        
         N21       0.4137127502809791  0.2697003559384143  0.6118421504243233  N        
         N22       0.6579388854179942  0.8019366598024747  0.38817244142497365           N        
         N23       0.34198126143316804           0.7302614990687921  0.14384953153038316          N        
         N24       0.5863055710773836  0.19809160393563544           0.8560605297052222 N        
         N25       0.3881850547776026  0.8019489180624542  0.6579591609631741  N        
         N26       0.611834501514347   0.26971093815601477           0.4137131700194261 N        
         N27       0.8560722141283994  0.19808271484618162           0.5863043444809611 N        
         N28       0.1438388622122094  0.7302514442339748  0.34195848009886326           N        
         N29       0.7302561151335618  0.3419606386698334  0.14384475982075226           N        
         N30       0.1980808838771325  0.5863019926522917  0.8560654632745448  N        
         N31       0.269709418853765   0.4137124825926328  0.6118301448897823  N        
         N32       0.801950594998639   0.6579590720751497  0.3881851954004864  N        
         N33       0.5863035289337402  0.8560686161917527  0.19808103588950554           N        
         N34       0.34196375301031523           0.14384216874993028           0.7302520779593082 N        
         N35       0.6579586944276428  0.38818208061905096           0.8019474442593181 N        
         N36       0.41371369736931574           0.6118331965336677  0.26971091383743273          N        
         N37       0.3881686016354495  0.5862899273345795  0.7302871298215057  N        
         N38       0.6118172944656917  0.34204122803773135           0.19805164908515868          N        
         N39       0.8561627216344736  0.6580416584609913  0.2697482616545721  N        
         N40       0.1439349364876228  0.41369892320273793           0.8019190595717475 N        
         N41       0.7302945670056047  0.3881680977977074  0.5862843683374567  N        
         N42       0.1980506334440417  0.6118134787802698  0.3420397697829694  N        
         N43       0.26974555617952706           0.8561553879478997  0.6580388957950972 N        
         N44       0.8019191200638558  0.14392929931230192           0.41369493182984046          N        
         N45       0.5862890846293384  0.7302886489271825  0.3881681937826305  N        
         N46       0.3420468640272099  0.1980515254938371  0.6118198602675137  N        
         N47       0.6580410836318139  0.2697498192008862  0.8561622268893493  N        
         N48       0.4136988020188082  0.801918208523683   0.1439323819988983  N        
         N49       0.5737261521713594  0.050532684427392977          0.24903528163621094          N        
         N50       0.42623203171906565           0.675348589712409   0.47679436381037354          N        
         N51       0.19841980921610097           0.9494524312018652  0.5230742069200183 N        
         N52       0.8016106411828658  0.3246722642221176  0.7510479746751957  N        
         N53       0.3246729525890817  0.7510458331884265  0.8016109350540153  N        
         N54       0.9494508702074129  0.5230729789109837  0.19841712804551653           N        
         N55       0.6753501126066441  0.47679487509741725           0.4262281884673947 N        
         N56       0.05053615589060568           0.24903609899774218           0.5737266739015852 N        
         N57       0.5230780048698541  0.19841790206259807           0.9494470388548446 N        
         N58       0.7510493500341183  0.8016162012657572  0.3246759462003635  N        
         N59       0.24903690833861628           0.5737294878228257  0.050538165860567426         N        
         N60       0.47679088983133877           0.4262215362731715  0.6753447982260375 N        
         N61       0.573770148445585   0.52320558291786    0.3246510334428601  N        
         N62       0.4262763693344097  0.750966185819154   0.9494674404162345  N        
         N63       0.19838983693789375           0.24895083113129834           0.6753272196760605 N        
         N64       0.8015793950520962  0.4769236442682494  0.050547398316838674         N        
         N65       0.3246512918826164  0.5737730172314848  0.5232067990105899  N        
         N66       0.9494657628387656  0.42627323528965944           0.7509642008587972 N        
         N67       0.6753285422382448  0.1983883232086137  0.24895337105561963           N        
         N68       0.0505512275421763  0.8015832307230047  0.4769278300860414  N        
         N69       0.5232108352407233  0.324655763308326   0.5737783744215906  N        
         N70       0.7509628284385127  0.9494617565904764  0.4262689976209784  N        
         N71       0.24895336494980036           0.6753242746710116  0.19838475038684628          N        
         N72       0.47692353500087126           0.05055292343517204           0.801582483789438  N        
         N73       0.4262849930951425  0.9494763342174896  0.7509770719560364  N        
         N74       0.5737605013498803  0.3246535454831044  0.5232051768732363  N        
         N75       0.8015822229369328  0.05053851081703248           0.4769238751843597 N        
         N76       0.19838799141832297           0.6753248564941672  0.2489399525169144 N        
         N77       0.6753257611616853  0.2489419546384609  0.19838564299444733           N        
         N78       0.05054212628152083           0.4769270017904923  0.8015850339513109 N        
         N79       0.32465390224206386           0.5232062490688342  0.5737637499421171 N        
         N80       0.9494746220159644  0.7509761135203429  0.4262826270118819  N        
         N81       0.476923686345939   0.80158548070258    0.05054398157354193           N        
         N82       0.2489415095543999  0.19838170304231786           0.675321988153024  N        
         N83       0.7509742440403808  0.4262777399310953  0.9494709050103909  N        
         N84       0.5232102881313636  0.5737686953953788  0.32465815064035547           N        
         N85       0.42624126727930883           0.47679486400730225           0.6753459246171751 N        
         N86       0.5737165850580404  0.24902323867524026           0.05052360680410801          N        
         N87       0.8016137371690785  0.7510598993462066  0.32467477092279456           N        
         N88       0.19841771176988748           0.5230747184536645  0.9494614691246831 N        
         N89       0.6753477545990612  0.42623810338115115           0.4767954190517957 N        
         N90       0.050527210631456654          0.5737181240215847  0.24902512363299964          N        
         N91       0.32467511486593115           0.8016133241004246  0.7510570881238503 N        
         N92       0.9494595824465459  0.19841390899747866           0.5230723946768401 N        
         N93       0.4767914236260408  0.6753421836687489  0.4262309263615391  N        
         N94       0.2490253511582934  0.05052937277616491           0.5737204239825873 N        
         N95       0.7510602710851798  0.324678685275883   0.8016181076497053  N        
         N96       0.5230788021018595  0.9494561429905399  0.1984159171807807  N
_cell_angle_alpha                       109.4579249483727
_cell_angle_beta                        109.45821973416585
_cell_angle_gamma                       109.45824092520226
_cell_length_a                          27.12228558876
_cell_length_b                          27.122058621107733
_cell_length_c                          27.122086818506737
loop_
  _symmetry_equiv_pos_as_xyz
         'x, y, z' 
_symmetry_int_tables_number             1
_symmetry_space_group_name_H-M          'P 1'