
##########################################################################
#               Crystallographic Information Format file
#               Produced by PyCifRW module
#
#  This is a CIF file.  CIF has been adopted by the International
#  Union of Crystallography as the standard for data archiving and
#  transmission.
#
#  For information on this file format, follow the CIF links at
#  http://www.iucr.org
##########################################################################

data_0

loop_
  _atom_site_label
  _atom_site_fract_x
  _atom_site_fract_y
  _atom_site_fract_z
  _atom_site_type_symbol
         Cu1       9.872231577904131e-12         0.4999999995912294  0.21564284144068044          Cu       
         Cu2       0.9999999979745057  0.5000000000319447  0.7843571581049775  Cu       
         Cu3       0.21564283918814012           4.789941353649114e-09         0.5000000020360452 Cu       
         Cu4       0.784357160711791   0.9999999996576784  0.5000000002595544  Cu       
         Cu5       0.5000000002728536  0.21564285186051566           0.9999999981023507 Cu       
         Cu6       0.4999999988302011  0.7843571481567851  3.8785063104334625e-09       Cu       
         Cu7       8.909383267616062e-11         0.5000000000898216  0.28369961983172326          Cu       
         Cu8       0.999999998803424   0.5000000011568483  0.716300380094886   Cu       
         Cu9       0.500000000738374   0.7163003684915098  4.02994568338677e-09         Cu       
         Cu10      0.5000000000722035  0.2836996317186976  8.463351529338407e-10        Cu       
         Cu11      0.7163003835890207  3.310789980848124e-09         0.5000000003510828 Cu       
         Cu12      0.28369961615323513           2.205327560063883e-09         0.4999999988250774 Cu       
         H1        0.0852026365415977  0.4186805637944221  0.18981080863553784           H        
         H2        0.9147973633081369  0.5813194358543561  0.1898108097366638  H        
         H3        0.9147973648121293  0.4186805596264157  0.8101891871205751  H        
         H4        0.08520263331492489           0.5813194398240092  0.8101891907146468 H        
         H5        0.1898108119187369  0.08520263322451105           0.41868055856799336          H        
         H6        0.18981081323788093           0.9147973684987925  0.5813194433282122 H        
         H7        0.8101891904687261  0.9147973750152941  0.41868055342409666           H        
         H8        0.8101891948211777  0.08520262560745996           0.581319443441769  H        
         H9        0.41868056333835985           0.1898108022923485  0.08520262626767917          H        
         H10       0.5813194384408285  0.18981080801701675           0.9147973703865655 H        
         H11       0.41868056933267045           0.8101891915180326  0.9147973641629132 H        
         H12       0.5813194278223173  0.8101891962477256  0.08520263720730334           H        
         H13       0.9189471455076565  0.5851585560705378  0.3097732728069319  H        
         H14       0.08105285491029036           0.41484144319766353           0.3097732713961068 H        
         H15       0.9189471485852023  0.4148414449126311  0.6902267235051728  H        
         H16       0.0810528502478495  0.5851585572901322  0.6902267273294649  H        
         H17       0.5851585553240638  0.6902267325339144  0.08105286540703752           H        
         H18       0.41484144843720994           0.6902267273711741  0.9189471414786925 H        
         H19       0.4148414453841103  0.3097732667672651  0.08105285353389353           H        
         H20       0.5851585532371176  0.3097732723308987  0.9189471465917438  H        
         H21       0.6902267294912328  0.918947155810149   0.41484144357150143           H        
         H22       0.6902267340144418  0.0810528475724637  0.5851585597642472  H        
         H23       0.30977327418907236           0.9189471543370156  0.585158555285149  H        
         H24       0.30977327254058484           0.08105285234182351           0.41484144321277727          H        
         H25       0.9147973722706     0.5813194447110666  0.8101891946330984  H        
         H26       0.08520262471899688           0.4186805555483072  0.8101891946680303 H        
         H27       0.08520262407612456           0.5813194506323878  0.1898108088390752 H        
         H28       0.914797374200105   0.4186805502918262  0.18981081101260905           H        
         H29       0.8101891833928325  0.9147973669537536  0.5813194457506641  H        
         H30       0.8101891888319643  0.08520263207144901           0.4186805582604075 H        
         H31       0.18981081200576724           0.08520262886893075           0.5813194481541106 H        
         H32       0.18981080524413943           0.9147973773789663  0.4186805553072028 H        
         H33       0.5813194379396471  0.8101891950560395  0.9147973736932882  H        
         H34       0.41868056253608643           0.8101891945826641  0.08520263086669919          H        
         H35       0.5813194296835772  0.18981080489401142           0.08520263515019527          H        
         H36       0.4186805691857075  0.1898108098331643  0.9147973616619485  H        
         H37       0.08105284604173416           0.414841442073431   0.69022673111068   H        
         H38       0.9189471510021388  0.5851585590272966  0.6902267311996892  H        
         H39       0.0810528423213173  0.5851585566350469  0.3097732729995054  H        
         H40       0.9189471581669328  0.4148414438919079  0.3097732750923711  H        
         H41       0.41484144819297436           0.30977327376333225           0.9189471406191371 H        
         H42       0.5851585537442412  0.3097732689421145  0.08105286132623628           H        
         H43       0.5851585536520943  0.6902267305542635  0.9189471494153533  H        
         H44       0.4148414446054389  0.6902267303938011  0.0810528563727858  H        
         H45       0.30977327290529627           0.08105284699928311           0.5851585569178536 H        
         H46       0.30977326625720053           0.9189471561356486  0.41484144113071586          H        
         H47       0.6902267281314068  0.08105284993136262           0.41484144302093146          H        
         H48       0.690226722528577   0.9189471540420533  0.5851585546666465  H        
         H49       0.1340698274045986  0.3691850362050039  0.18968897325805567           H        
         H50       0.8659301726349101  0.6308149642730487  0.1896889753771623  H        
         H51       0.8659301727260303  0.3691850346429215  0.8103110275730698  H        
         H52       0.13406982587160618           0.6308149642241521  0.8103110271195144 H        
         H53       0.18968897171723814           0.1340698233865599  0.36918503212843323          H        
         H54       0.18968896850707334           0.8659301774001082  0.6308149670231235 H        
         H55       0.8103110340369749  0.8659301793522088  0.3691850327622745  H        
         H56       0.8103110264377924  0.13406982051942998           0.630814966224587  H        
         H57       0.369185043121867   0.18968897919813235           0.13406982862620187          H        
         H58       0.6308149576326701  0.1896889761815227  0.8659301683691834  H        
         H59       0.36918504507701105           0.8103110206262756  0.8659301679246408 H        
         H60       0.6308149559680826  0.8103110151515538  0.13406983229238223           H        
         H61       0.8694009597356122  0.633965777874004   0.31016269578905675           H        
         H62       0.13059904105322032           0.36603422206140224           0.31016269311807854          H        
         H63       0.8694009598710759  0.3660342233824624  0.689837308009988   H        
         H64       0.13059903900672987           0.6339657780866749  0.689837307086055  H        
         H65       0.6339657746269279  0.6898372974375028  0.13059905292494503           H        
         H66       0.3660342310168243  0.6898373031822593  0.8694009517477623  H        
         H67       0.36603423150200515           0.31016269714268857           0.13059904600041483          H        
         H68       0.6339657674947249  0.3101626942121194  0.8694009534933518  H        
         H69       0.6898373157944749  0.8694009654149037  0.3660342252821017  H        
         H70       0.6898373075461043  0.13059903716770022           0.6339657791208068 H        
         H71       0.31016268737967173           0.8694009654029108  0.6339657767531598 H        
         H72       0.3101626902080968  0.13059903960077637           0.3660342201329148 H        
         H73       0.8659301751145867  0.6308149644668004  0.8103110267476628  H        
         H74       0.13406982200097237           0.36918503647209017           0.8103110283214476 H        
         H75       0.13406982371402845           0.6308149680527243  0.18968896727542278          H        
         H76       0.8659301743938222  0.36918503339908426           0.18968896663945145          H        
         H77       0.8103110343230845  0.8659301759805503  0.6308149692431213  H        
         H78       0.8103110282580959  0.1340698230200012  0.36918503326173413           H        
         H79       0.18968896666335336           0.13406982343904633           0.6308149694334276 H        
         H80       0.18968896993343526           0.8659301810176621  0.3691850359549367 H        
         H81       0.6308149554577313  0.8103110217574212  0.8659301712385851  H        
         H82       0.3691850422493186  0.8103110223621451  0.13406983234620762           H        
         H83       0.6308149564409851  0.18968898315595517           0.13406983086746957          H        
         H84       0.3691850430441622  0.18968898162832526           0.8659301666646836 H        
         H85       0.1305990375440279  0.36603422542931197           0.6898373087122657 H        
         H86       0.869400959736943   0.6339657761734231  0.6898373068552746  H        
         H87       0.13059903498683711           0.6339657723974982  0.3101626873611374 H        
         H88       0.8694009645720663  0.3660342280207135  0.3101626867702333  H        
         H89       0.366034229104964   0.3101626992684623  0.869400952162887   H        
         H90       0.6339657724726995  0.31016270148040753           0.13059905002968583          H        
         H91       0.6339657669840213  0.6898373050484593  0.8694009555408732  H        
         H92       0.3660342295690284  0.6898373039988581  0.13059904927590038           H        
         H93       0.3101626857140045  0.13059903770445974           0.6339657768300493 H        
         H94       0.31016268786087287           0.8694009645663207  0.36603422351118087          H        
         H95       0.6898373102733624  0.1305990382776366  0.36603422100456195           H        
         H96       0.6898373152277074  0.8694009651826268  0.6339657767181439  H        
         H97       0.1939063632437222  0.3553001966002468  0.20148903555361847           H        
         H98       0.8060936378168764  0.6446998040541272  0.20148903839318247           H        
         H99       0.8060936372623534  0.3553001961052859  0.7985109620215755  H        
         H100      0.19390636254743326           0.6446998031119366  0.7985109646068193 H        
         H101      0.2014890352929724  0.1939063616940794  0.35530019622531617           H        
         H102      0.20148903699592594           0.8060936393358864  0.6446998048350419 H        
         H103      0.7985109642228675  0.8060936403947296  0.3553001961571317  H        
         H104      0.7985109673165602  0.19390636106816547           0.6446998001353798 H        
         H105      0.3553001991295504  0.20148903793134149           0.19390636443486564          H        
         H106      0.6446998034918003  0.2014890411140961  0.8060936344004535  H        
         H107      0.35530019842244365           0.7985109611189348  0.806093633758299  H        
         H108      0.6446997995881916  0.7985109653522571  0.1939063675539132  H        
         H109      0.8553012248692538  0.6938889308795062  0.29851193289355965           H        
         H110      0.14469877624582295           0.3061110699248776  0.298511929795029  H        
         H111      0.8553012245507345  0.3061110698991373  0.7014880675165267  H        
         H112      0.14469877668214767           0.6938889306756912  0.7014880705414147 H        
         H113      0.6938889282701162  0.7014880730745452  0.14469878383950174           H        
         H114      0.30611107417718386           0.7014880678017912  0.8553012215351249 H        
         H115      0.30611107444625363           0.29851193132287496           0.14469877715622867          H        
         H116      0.6938889259357859  0.2985119349833779  0.8553012243292886  H        
         H117      0.7014880709736931  0.8553012283773299  0.3061110708617723  H        
         H118      0.7014880743132533  0.1446987779073156  0.6938889307849274  H        
         H119      0.29851193073456295           0.8553012270940368  0.6938889306720982 H        
         H120      0.2985119282464218  0.14469877626744318           0.3061110678006927 H        
         H121      0.8060936358248617  0.6446998006687439  0.7985109668094071  H        
         H122      0.19390636111197412           0.3553001992189873  0.7985109662430506 H        
         H123      0.19390636096355052           0.6446998071860504  0.20148903989848618          H        
         H124      0.8060936385161788  0.35530019378086386           0.20148904097491346          H        
         H125      0.7985109602556947  0.806093638945953   0.6446998080946289  H        
         H126      0.7985109652515909  0.1939063620620376  0.35530019774642324           H        
         H127      0.2014890361364014  0.19390636235359665           0.6446998052251433 H        
         H128      0.2014890310226765  0.8060936388882337  0.3553002006510088  H        
         H129      0.6446998008883594  0.7985109611814093  0.8060936353750211  H        
         H130      0.35530019753966774           0.7985109626539044  0.1939063678387625 H        
         H131      0.644699800431096   0.20148903680039462           0.19390636595491745          H        
         H132      0.3553001964665941  0.20148904168289056           0.806093634100509  H        
         H133      0.14469877613766396           0.3061110718482446  0.7014880715019314 H        
         H134      0.8553012203080248  0.6938889291563476  0.7014880724180831  H        
         H135      0.1446987702433046  0.6938889291533699  0.29851193606388554           H        
         H136      0.8553012295822012  0.30611107157446027           0.29851193657414943          H        
         H137      0.3061110723998567  0.2985119348595206  0.8553012228812363  H        
         H138      0.6938889278488369  0.29851193002902154           0.14469878103359612          H        
         H139      0.6938889242918539  0.7014880676458851  0.8553012230239031  H        
         H140      0.30611107284805783           0.7014880693281502  0.1446987799505463 H        
         H141      0.29851192929677356           0.14469877476695905           0.693888931255221  H        
         H142      0.29851192427370643           0.8553012230634759  0.306111071644858  H        
         H143      0.7014880725295546  0.14469877668119635           0.3061110690526447 H        
         H144      0.7014880662253982  0.8553012293360349  0.6938889322020503  H        
         H145      0.2507653402805574  0.3706767107460047  0.19179035724576896           H        
         H146      0.7492346603464753  0.6293232908347219  0.19179036018263299           H        
         H147      0.749234661084196   0.3706767111281927  0.8082096417329531  H        
         H148      0.2507653398644487  0.6293232899077178  0.8082096412681454  H        
         H149      0.19179035838114114           0.25076534108960047           0.37067671034773597          H        
         H150      0.19179035782001919           0.7492346598003017  0.6293232882413268 H        
         H151      0.8082096430619375  0.7492346608142932  0.3706767134244622  H        
         H152      0.8082096415767723  0.2507653403891567  0.6293232883663037  H        
         H153      0.3706767098343385  0.19179035810848927           0.25076534245392973          H        
         H154      0.6293232898801225  0.19179035678261258           0.74923465705634   H        
         H155      0.37067671041391415           0.8082096437224285  0.749234656818898  H        
         H156      0.6293232922996669  0.808209642564658   0.25076534484137136           H        
         H157      0.8706613229828939  0.7507550937079813  0.3082203557405531  H        
         H158      0.12933867795936144           0.24924490759085408           0.308220353631369  H        
         H159      0.870661322442726   0.24924490705747301           0.691779644963012  H        
         H160      0.1293386782562019  0.7507550935448817  0.6917796458792198  H        
         H161      0.7507550938997521  0.691779646719591   0.12933867823431755           H        
         H162      0.24924490816406675           0.6917796479024596  0.8706613224084105 H        
         H163      0.24924490804129354           0.30822035303189405           0.1293386762730568 H        
         H164      0.7507550931336223  0.308220352495652   0.8706613219448066  H        
         H165      0.6917796476626693  0.8706613228310546  0.2492449083327826  H        
         H166      0.6917796465457101  0.12933867871842591           0.7507550940507851 H        
         H167      0.3082203533278546  0.8706613214780898  0.7507550939008969  H        
         H168      0.30822035385871277           0.12933867862332726           0.2492449054560978 H        
         H169      0.749234658536522   0.6293232892390006  0.8082096424573151  H        
         H170      0.2507653388766067  0.37067671249403733           0.8082096422158704 H        
         H171      0.2507653385838823  0.6293232891347287  0.19179035876692077           H        
         H172      0.749234660924441   0.3706767121288954  0.19179035796325372           H        
         H173      0.8082096421141776  0.749234659802149   0.6293232888300757  H        
         H174      0.8082096431031207  0.2507653400245624  0.3706767127802645  H        
         H175      0.19179035680827855           0.250765341826122   0.6293232887206613 H        
         H176      0.19179035597620453           0.7492346595067245  0.37067671365174376          H        
         H177      0.6293232883283996  0.8082096433778675  0.7492346583911993  H        
         H178      0.37067670805091163           0.8082096433925563  0.2507653456403052 H        
         H179      0.6293232913422239  0.1917903581256837  0.2507653432910984  H        
         H180      0.37067670900313937           0.19179035833662222           0.7492346578143745 H        
         H181      0.12933867714178796           0.2492449083425067  0.6917796464936358 H        
         H182      0.8706613208535194  0.7507550925137175  0.6917796467908652  H        
         H183      0.1293386765864782  0.7507550925630364  0.3082203553424185  H        
         H184      0.8706613219527365  0.24924490738441132           0.30822035352427796          H        
         H185      0.24924490652784115           0.30822035437777845           0.8706613230323432 H        
         H186      0.7507550945767743  0.3082203530601363  0.12933867868114696           H        
         H187      0.7507550909508599  0.6917796475009662  0.8706613234464323  H        
         H188      0.2492449062343407  0.6917796483818532  0.12933867940391072           H        
         H189      0.3082203518715395  0.12933868064621298           0.7507550946214802 H        
         H190      0.30822035188998986           0.870661322094069   0.24924490925447373          H        
         H191      0.6917796469531364  0.12933867888008824           0.2492449068031133 H        
         H192      0.6917796468377668  0.8706613203204934  0.7507550955111532  H        
         H193      0.2851968801290088  0.3495363103779007  0.22077340349187743           H        
         H194      0.7148031219124504  0.6504636913931181  0.22077340566939996           H        
         H195      0.7148031202169849  0.3495363108737436  0.7792265953610783  H        
         H196      0.28519687945847527           0.6504636901685907  0.779226595066564  H        
         H197      0.2207734037717602  0.2851968807492336  0.34953630908234506           H        
         H198      0.22077340331865614           0.7148031194886364  0.6504636896224578 H        
         H199      0.7792265974352035  0.7148031200917924  0.34953631185795114           H        
         H200      0.7792265967607132  0.28519687937530774           0.6504636891681186 H        
         H201      0.349536308040696   0.22077340469808238           0.2851968801455695 H        
         H202      0.6504636914607448  0.2207734037150045  0.714803118265027   H        
         H203      0.34953630889892284           0.7792265962656975  0.7148031177646437 H        
         H204      0.6504636932204371  0.7792265960207077  0.2851968821336953  H        
         H205      0.8495145701643232  0.7851858982120942  0.27923886871497716           H        
         H206      0.15048543110932147           0.21481410219044844           0.27923886612278337          H        
         H207      0.8495145685140509  0.21481410140741328           0.7207611325284685 H        
         H208      0.1504854314684134  0.7851858982475357  0.7207611330099303  H        
         H209      0.7851859006900198  0.7207611334678155  0.15048543240277812           H        
         H210      0.2148141024272387  0.7207611341414012  0.8495145685411428  H        
         H211      0.2148141028090662  0.27923886689922334           0.15048543036514853          H        
         H212      0.7851858974672973  0.27923886639430096           0.849514567515325  H        
         H213      0.7207611354229694  0.849514568842831   0.2148141032835219  H        
         H214      0.7207611338959385  0.1504854330789993  0.7851858978450738  H        
         H215      0.2792388661697076  0.8495145677326663  0.7851858972148992  H        
         H216      0.2792388665187009  0.15048543244301193           0.21481410059536604          H        
         H217      0.7148031193541177  0.6504636889022798  0.779226596558925   H        
         H218      0.2851968786434897  0.34953631199195767           0.7792265961000793 H        
         H219      0.28519687948281475           0.650463690034775   0.22077340543900306          H        
         H220      0.7148031198652461  0.3495363108659963  0.2207734044713994  H        
         H221      0.7792265960367651  0.7148031189985535  0.6504636897299128  H        
         H222      0.7792265970920758  0.2851968816058219  0.349536312191596   H        
         H223      0.2207734024209838  0.2851968822446814  0.6504636897898401  H        
         H224      0.22077340186359407           0.7148031191904195  0.3495363126294209 H        
         H225      0.6504636901579536  0.7792265958052564  0.7148031181454803  H        
         H226      0.34953630699351274           0.7792265964847874  0.2851968831878675 H        
         H227      0.6504636922574382  0.22077340475521345           0.28519688081747757          H        
         H228      0.3495363079823039  0.22077340565131745           0.7148031184142154 H        
         H229      0.15048543073332865           0.21481410386660532           0.7207611336396009 H        
         H230      0.8495145675542787  0.7851858969279591  0.7207611341194953  H        
         H231      0.1504854303029166  0.7851858968517357  0.2792388685326341  H        
         H232      0.8495145683983402  0.21481410409114926           0.27923886668424996          H        
         H233      0.21481410100371642           0.2792388682209645  0.8495145690033193 H        
         H234      0.7851858989177519  0.27923886734839    0.1504854327881547  H        
         H235      0.7851858967292236  0.7207611336867261  0.8495145684734342  H        
         H236      0.21481410179921187           0.7207611340456761  0.1504854335907749 H        
         H237      0.27923886472163034           0.1504854344666736  0.7851858979315078 H        
         H238      0.2792388644338319  0.8495145678314282  0.21481410419234026           H        
         H239      0.7207611348526384  0.15048543269163334           0.21481410179401594          H        
         H240      0.7207611333499309  0.8495145666246967  0.7851858978491324  H        
         H241      0.2912067373282694  0.3504313907488797  0.17142011805357557           H        
         H242      0.7087932649358739  0.6495686105664583  0.17142012166038    H        
         H243      0.7087932638348102  0.3504313909664967  0.8285798815095511  H        
         H244      0.29120673615778797           0.649568609880939   0.8285798800860744 H        
         H245      0.17142011922920306           0.2912067367267962  0.35043138926360545          H        
         H246      0.17142011835203985           0.7087932635463977  0.6495686098311868 H        
         H247      0.8285798828538827  0.708793264118421   0.35043139176266697           H        
         H248      0.8285798803756628  0.29120673547166853           0.6495686087903941 H        
         H249      0.3504313873057902  0.17142012047554167           0.29120673785720147          H        
         H250      0.6495686125017277  0.17142011863655948           0.708793260764666  H        
         H251      0.3504313876031754  0.8285798818508108  0.708793260411232   H        
         H252      0.6495686137575877  0.8285798800298041  0.2912067401974178  H        
         H253      0.850410561689302   0.791191354541473   0.32859307435493557           H        
         H254      0.1495894399599907  0.20880864647732464           0.3285930725006875 H        
         H255      0.8504105597636543  0.20880864539311325           0.6714069258059249 H        
         H256      0.14958944015714642           0.7911913545013657  0.6714069269217319 H        
         H257      0.7911913550696564  0.6714069261559694  0.14958944128393883           H        
         H258      0.20880864744598032           0.6714069280565093  0.8504105605389124 H        
         H259      0.20880864791493506           0.328593072600992   0.14958943865990043          H        
         H260      0.7911913527357771  0.3285930715786685  0.8504105596627307  H        
         H261      0.6714069299461292  0.8504105593365222  0.2088086470906479  H        
         H262      0.6714069286400369  0.14958944140006558           0.79119135547519   H        
         H263      0.3285930704708976  0.8504105592351977  0.7911913543735463  H        
         H264      0.32859307216865324           0.14958944133487015           0.20880864377299488          H        
         H265      0.7087932626160538  0.6495686088636581  0.8285798812180597  H        
         H266      0.29120673505043493           0.3504313922918393  0.8285798812833332 H        
         H267      0.29120673610276754           0.6495686102101974  0.1714201191088198 H        
         H268      0.7087932638681551  0.3504313905384763  0.17142011809939295           H        
         H269      0.8285798813591807  0.7087932629053348  0.6495686099484944  H        
         H270      0.8285798830037494  0.29120673704753747           0.35043139152234193          H        
         H271      0.17142011745427582           0.2912067382436359  0.6495686099625175 H        
         H272      0.17142011674537017           0.7087932631898695  0.35043139224869124          H        
         H273      0.6495686121162333  0.828579882209647   0.7087932615621668  H        
         H274      0.35043138589545747           0.8285798805819695  0.2912067410666858 H        
         H275      0.6495686129290291  0.1714201208770351  0.29120673838000505           H        
         H276      0.35043138641796384           0.17142011991185532           0.7087932612377589 H        
         H277      0.1495894392288304  0.2088086473012539  0.671406927561339   H        
         H278      0.8504105595560972  0.7911913538672165  0.6714069280810078  H        
         H279      0.14958943833642457           0.7911913530132005  0.32859307386955505          H        
         H280      0.8504105602736715  0.20880864748607686           0.3285930713598572 H        
         H281      0.20880864609879352           0.3285930740385995  0.8504105612252355 H        
         H282      0.7911913545689424  0.32859307290661854           0.1495894402446127 H        
         H283      0.7911913515490655  0.6714069274605109  0.8504105606013308  H        
         H284      0.20880864629747745           0.6714069287149862  0.1495894407572754 H        
         H285      0.32859306904050456           0.14958944331204088           0.7911913549777458 H        
         H286      0.32859307034981566           0.8504105593387336  0.2088086472349381 H        
         H287      0.6714069290527588  0.14958944179873726           0.20880864495972373          H        
         H288      0.6714069298555483  0.8504105585414851  0.7911913553198717  H        
         C1        0.05058383773375391           0.4492873607490076  0.24970548994861305          C        
         C2        0.9494161619891053  0.5507126389253375  0.2497054943190135  C        
         C3        0.9494161646543308  0.44928735712677326           0.7502945297344992 C        
         C4        0.05058383117157403           0.5507126442466884  0.750294529117732  C        
         C5        0.24970544602437067           0.05058383400197751           0.4492873571845315 C        
         C6        0.2497054339375193  0.9494161730993421  0.5507126440915481  C        
         C7        0.7502945609021463  0.9494161813707483  0.44928735017135585           C        
         C8        0.7502945436880007  0.05058381987048574           0.5507126499046379 C        
         C9        0.44928734509484697           0.24970560708610076           0.050583825028045495         C        
         C10       0.5507126550710918  0.24970559690716607           0.9494161716151037 C        
         C11       0.4492873544241519  0.7502944064979242  0.9494161612028091  C        
         C12       0.5507126441448219  0.7502943899833229  0.050583844751505805         C        
         C13       0.9494161773226405  0.5507126518862878  0.7502945251289685  C        
         C14       0.050583818500498735          0.44928734864276126           0.7502945323574459 C        
         C15       0.05058381708531625           0.55071265473221    0.24970548394213515          C        
         C16       0.9494161819756693  0.4492873455204993  0.24970548106091314           C        
         C17       0.7502945628167046  0.9494161694290808  0.5507126443687085  C        
         C18       0.7502945455840472  0.050583831289548443          0.4492873563428059 C        
         C19       0.24970543395803693           0.050583824508902094          0.5507126500380958 C        
         C20       0.24970544404475317           0.9494161853132718  0.4492873488875509 C        
         C21       0.550712655994533   0.7502944062834902  0.9494161771866929  C        
         C22       0.449287344993198   0.7502944019972806  0.050583831503339165         C        
         C23       0.550712645411345   0.2497056128782622  0.050583841043141224         C        
         C24       0.4492873555024958  0.2497056060937579  0.9494161562637458  C        
         C25       0.0800412496187161  0.41983554462050726           0.24977978695610267          C        
         C26       0.9199587506417741  0.58016445479165    0.24977978711969784           C        
         C27       0.919958754682353   0.41983554282282526           0.7502201959566988 C        
         C28       0.08004124375850645           0.5801644576409802  0.7502202070936912 C        
         C29       0.24977980098593916           0.08004124595581703           0.41983554151329716          C        
         C30       0.24977981426166326           0.9199587602287574  0.5801644586271584 C        
         C31       0.7502201908919022  0.919958764846547   0.41983553770389587           C        
         C32       0.7502202195287545  0.08004123879396875           0.5801644614113015 C        
         C33       0.41983554425345915           0.24977975070924519           0.08004123866712554          C        
         C34       0.5801644563327113  0.24977977271906138           0.919958760845266  C        
         C35       0.419835549995484   0.7502202336267109  0.9199587526859136  C        
         C36       0.5801644500843397  0.7502202626036164  0.08004125428152555           C        
         C37       0.919958760639801   0.5801644617237913  0.7502202175358793  C        
         C38       0.08004123596016154           0.419835538578986   0.7502202128530115 C        
         C39       0.0800412311437102  0.5801644643038313  0.2497798064969064  C        
         C40       0.9199587686414256  0.41983553650459643           0.24977981359592286          C        
         C41       0.750220171047965   0.9199587602829747  0.5801644597182777  C        
         C42       0.7502202010497456  0.08004124340516094           0.41983554145731644          C        
         C43       0.24977981416075057           0.08004123842895512           0.5801644627845635 C        
         C44       0.2497797888899577  0.9199587661292884  0.4198355381610061  C        
         C45       0.5801644561072203  0.7502202373170974  0.9199587640539105  C        
         C46       0.4198355437383242  0.7502202395787628  0.08004124189411785           C        
         C47       0.5801644499841909  0.24977974625725013           0.08004124955967552          C        
         C48       0.4198355497741652  0.2497797648497061  0.9199587504438596  C        
         C49       0.09540811724992188           0.4069629518675798  0.21596919356258784          C        
         C50       0.9045918816556477  0.5930370488989968  0.21596919594168    C        
         C51       0.9045918844597962  0.4069629502072518  0.7840308193993327  C        
         C52       0.0954081136561321  0.5930370500555606  0.78403081237776    C        
         C53       0.21596918206542481           0.0954081124893551  0.4069629491343265 C        
         C54       0.21596916828386378           0.9045918916092308  0.5930370501928136 C        
         C55       0.7840308335563193  0.9045918965660574  0.4069629473534691  C        
         C56       0.7840308055963022  0.09540810576640255           0.593037053213867  C        
         C57       0.4069629448200256  0.2159692199492154  0.09540811638312548           C        
         C58       0.5930370550571183  0.21596920339175    0.9045918813916677  C        
         C59       0.4069629509920145  0.7840307870832676  0.9045918763699208  C        
         C60       0.593037050459227   0.784030760066696   0.09540812785706282           C        
         C61       0.907154817925198   0.5954219671121789  0.2836701332987261  C        
         C62       0.09284518184603495           0.40457803288747163           0.2836701309206948 C        
         C63       0.9071548173786732  0.40457803090384603           0.7163298819585283 C        
         C64       0.09284518148707101           0.5954219710927349  0.7163298758557105 C        
         C65       0.5954219627596394  0.7163298284132141  0.09284518757314691           C        
         C66       0.40457803936484893           0.7163298534151333  0.9071548169036281 C        
         C67       0.40457803682826204           0.2836701534181003  0.09284517684248185          C        
         C68       0.5954219624320076  0.2836701382185864  0.9071548219392861  C        
         C69       0.716329895917356   0.9071548261241335  0.40457802894476663           C        
         C70       0.716329870156087   0.09284517742136911           0.5954219746400121 C        
         C71       0.28367010548555593           0.9071548214905376  0.5954219724287474 C        
         C72       0.28367011840418915           0.09284518324953656           0.4045780271259823 C        
         C73       0.9045918910168055  0.5930370531380807  0.7840308076270995  C        
         C74       0.09540810500976436           0.4069629481920033  0.7840308134878848 C        
         C75       0.09540810597720789           0.593037058135361   0.21596916913798198          C        
         C76       0.9045918929629131  0.40696294303186914           0.2159691643134354 C        
         C77       0.7840308440490348  0.9045918899187263  0.5930370518623534  C        
         C78       0.7840308172502153  0.09540811090571207           0.4069629494078761 C        
         C79       0.2159691653824735  0.09540810726577506           0.593037054068748  C        
         C80       0.2159691836813644  0.904591898177853   0.40696294805143624           C        
         C81       0.5930370535729331  0.7840307898006817  0.9045918858387448  C        
         C82       0.406962944440311   0.7840307865476847  0.09540812099290495           C        
         C83       0.59303705142937    0.21596923114040542           0.09540812551914728          C        
         C84       0.40696294932826615           0.2159692174387132  0.9045918733352919 C        
         C85       0.0928451756327401  0.40457802930584946           0.7163298768261076 C        
         C86       0.9071548207058403  0.5954219722424939  0.7163298715620483  C        
         C87       0.09284517324921379           0.5954219714298566  0.2836701078399723 C        
         C88       0.9071548260541973  0.40457802864399606           0.283670103427827  C        
         C89       0.40457803854129154           0.2836701514750351  0.907154815776681  C        
         C90       0.5954219631062744  0.28367016379081644           0.0928451853635167 C        
         C91       0.595421963229786   0.7163298561120306  0.9071548242556268  C        
         C92       0.40457803471163023           0.7163298532091283  0.09284518216914432          C        
         C93       0.2836701027752674  0.09284517958551221           0.5954219743545667 C        
         C94       0.28367011926946656           0.907154825049388   0.4045780258785368 C        
         C95       0.7163298806987443  0.09284518148505352           0.404578026978977  C        
         C96       0.7163299054343116  0.90715482037112    0.5954219727035844  C        
         C97       0.12296993180377136           0.3794508171820063  0.21611900905526432          C        
         C98       0.8770300695832791  0.6205491825044531  0.21611901089330038           C        
         C99       0.877030068012344   0.37945081412126347           0.7838809821837087 C        
         C100      0.12296993033257608           0.620549184729714   0.7838809905837498 C        
         C101      0.21611901222759966           0.12296992962385937           0.37945081229768457          C        
         C102      0.2161190214174708  0.8770300708671525  0.6205491867312185  C        
         C103      0.783880980038252   0.8770300741360538  0.3794508119881674  C        
         C104      0.7838810006111262  0.12296992529748013           0.6205491863486465 C        
         C105      0.37945082603915925           0.2161189938620405  0.1229699265498338 C        
         C106      0.620549174742116   0.21611900942189302           0.8770300702292673 C        
         C107      0.379450827611081   0.7838809973270453  0.8770300670160043  C        
         C108      0.6205491733616505  0.7838810174831574  0.12296993233347214           C        
         C109      0.8796059169219226  0.6229491736961644  0.2836727910942612  C        
         C110      0.12039408482050577           0.3770508258475935  0.2836727897517885 C        
         C111      0.8796059195970567  0.37705082890588165           0.7163272005702154 C        
         C112      0.120394079014053   0.6229491714437334  0.7163272100637551  C        
         C113      0.6229491711871689  0.7163272336131422  0.12039409321144873           C        
         C114      0.37705083329972816           0.7163272123616483  0.8796059094972576 C        
         C115      0.37705083136236456           0.28367277797312757           0.12039408709396397          C        
         C116      0.6229491680066799  0.2836727947855847  0.8796059115121422  C        
         C117      0.7163272007602157  0.8796059245595437  0.377050828546947   C        
         C118      0.7163272228383002  0.12039407582542114           0.6229491725351315 C        
         C119      0.28367280065148776           0.8796059247981052  0.6229491697599172 C        
         C120      0.2836727915007683  0.1203940786798398  0.3770508274948461  C        
         C121      0.877030071031369   0.6205491861664302  0.7838809980854968  C        
         C122      0.12296992674101695           0.3794508143177557  0.7838809943806394 C        
         C123      0.12296992506519046           0.6205491864612797  0.21611902313154754          C        
         C124      0.8770300731984965  0.37945081513543666           0.216119027667844  C        
         C125      0.7838809675165601  0.8770300698429859  0.6205491880128402  C        
         C126      0.7838809895069841  0.12296992951355502           0.3794508134223364 C        
         C127      0.21611902094953153           0.12296992921466661           0.6205491892401607 C        
         C128      0.21611900275234583           0.8770300754792263  0.37945081405827696          C        
         C129      0.620549174270018   0.7838810001311736  0.8770300716198554  C        
         C130      0.37945082461919655           0.7838810019708552  0.12296993063913571          C        
         C131      0.6205491719739302  0.21611898932213056           0.12296993051298605          C        
         C132      0.3794508269040579  0.21611900324605407           0.8770300666954869 C        
         C133      0.12039407720526918           0.377050829273115   0.7163272140455769 C        
         C134      0.8796059209105823  0.6229491713674319  0.7163272178051834  C        
         C135      0.12039407651450725           0.6229491708409258  0.2836728047427149 C        
         C136      0.8796059231196047  0.37705083062949113           0.2836728096630808 C        
         C137      0.37705083158031627           0.2836727884897456  0.8796059090175311 C        
         C138      0.6229491685087516  0.2836727734649475  0.12039409056869879           C        
         C139      0.6229491664532933  0.7163272150954368  0.879605914010588   C        
         C140      0.3770508313202045  0.7163272170160463  0.12039408876563107           C        
         C141      0.2836728006607099  0.12039407706837135           0.6229491710719645 C        
         C142      0.2836727811443293  0.8796059262983595  0.3770508298366579  C        
         C143      0.7163272099989446  0.12039407812854208           0.37705082841586823          C        
         C144      0.7163271873302177  0.8796059237696562  0.6229491703340551  C        
         C145      0.13606214668923358           0.363891097524666   0.24993369871274515          C        
         C146      0.8639378535493942  0.6361089024995519  0.2499337017557374  C        
         C147      0.8639378524325891  0.3638910972545892  0.7500663106592184  C        
         C148      0.13606214577598288           0.6361089040563764  0.7500663020963856 C        
         C149      0.24993369280910974           0.1360621453785872  0.363891094471256  C        
         C150      0.24993367833521615           0.8639378575584389  0.6361089040236194 C        
         C151      0.7500663247553442  0.8639378587162828  0.36389109774968054           C        
         C152      0.7500662922770764  0.1360621415174167  0.6361089058279328  C        
         C153      0.3638911007204376  0.2499337177872989  0.13606214883267975           C        
         C154      0.6361088981876664  0.249933698556519   0.8639378490531258  C        
         C155      0.36389110180756334           0.7500662897411841  0.8639378476100279 C        
         C156      0.6361089015264068  0.7500662604976079  0.1360621542549572  C        
         C157      0.8639378546365137  0.636108903880737   0.7500662950995842  C        
         C158      0.13606214239137823           0.36389109763287864           0.7500663015258584 C        
         C159      0.136062143155452   0.6361089031735031  0.24993367374251238           C        
         C160      0.8639378560772089  0.3638910979544575  0.24993366818816248           C        
         C161      0.7500663371386747  0.8639378561229263  0.6361089045158855  C        
         C162      0.7500663070868092  0.1360621444502736  0.3638910944912131  C        
         C163      0.24993367526118573           0.13606214437220462           0.6361089049600082 C        
         C164      0.24993369700618254           0.8639378591844212  0.36389109612929177          C        
         C165      0.6361088985965663  0.7500662910562822  0.8639378513567028  C        
         C166      0.36389109934450525           0.7500662881604327  0.1360621529214862 C        
         C167      0.6361089014294877  0.24993372981734263           0.1360621517703387 C        
         C168      0.3638910998175173  0.24993371336347867           0.8639378472776146 C        
         C169      0.1652613374885041  0.3347307479953197  0.24998867041492706           C        
         C170      0.834738663906887   0.6652692533248872  0.2499886741289765  C        
         C171      0.8347386660934616  0.3347307455888997  0.7500113223591398  C        
         C172      0.16526133652683495           0.6652692510059092  0.750011332471238  C        
         C173      0.24998866938508774           0.16526133440573085           0.334730746471817  C        
         C174      0.2499886788971726  0.8347386697178337  0.6652692566770962  C        
         C175      0.7500113204135219  0.8347386712294272  0.3347307440439909  C        
         C176      0.7500113451139606  0.16526133888751562           0.6652692459202686 C        
         C177      0.334730753401367   0.2499886697448923  0.16526133812389737           C        
         C178      0.6652692534904512  0.24998868586475823           0.8347386655232383 C        
         C179      0.334730751615845   0.7500113246344736  0.8347386616674569  C        
         C180      0.6652692409842205  0.7500113469371236  0.1652613468985163  C        
         C181      0.8347386594687879  0.6652692461680308  0.7500113411472917  C        
         C182      0.16526133633600074           0.3347307526139992  0.750011336237982  C        
         C183      0.16526132741738847           0.6652692608827829  0.24998869044552818          C        
         C184      0.8347386731858565  0.33473073824768396           0.2499886950195836 C        
         C185      0.7500113071079996  0.8347386738703126  0.6652692642303735  C        
         C186      0.7500113332213474  0.16526133537689208           0.3347307481676118 C        
         C187      0.24998867892029852           0.16526133165826867           0.665269257764465  C        
         C188      0.24998865713449944           0.8347386634162877  0.334730754309784  C        
         C189      0.6652692471418375  0.750011325954582   0.8347386636121418  C        
         C190      0.3347307511209534  0.7500113291733063  0.16526134035963697           C        
         C191      0.6652692440258032  0.2499886607702265  0.1652613431586598  C        
         C192      0.33473074857960555           0.2499886792179902  0.8347386626823586 C        
         C193      0.19331634244221627           0.3335613185009684  0.22275286583211013          C        
         C194      0.8066836592438874  0.6664386810003406  0.22275286782322537           C        
         C195      0.8066836546931022  0.3335613203645044  0.7772471361241402  C        
         C196      0.19331634223590266           0.6664386832695407  0.77724713152919   C        
         C197      0.22275286611878778           0.19331634325946515           0.3335613163672052 C        
         C198      0.22275286042847453           0.8066836572637133  0.6664386781055422 C        
         C199      0.7772471428924859  0.8066836574162315  0.3335613236070186  C        
         C200      0.7772471247162949  0.19331633780935242           0.6664386874639445 C        
         C201      0.33356132073912176           0.22275286932910343           0.19331634400452083          C        
         C202      0.6664386728534814  0.2227528600565255  0.8066836517216732  C        
         C203      0.33356132239566705           0.7772471338337655  0.8066836522681287 C        
         C204      0.6664386886934421  0.7772471208898202  0.1933163449149738  C        
         C205      0.8335601320005853  0.6932996808460363  0.2772482584034397  C        
         C206      0.16643986985219086           0.3067003181249558  0.27724825607010056          C        
         C207      0.8335601268504986  0.30670031933322184           0.722751745794224  C        
         C208      0.16643986806997974           0.6932996827930515  0.7227517403642659 C        
         C209      0.6932996855612751  0.7227517273250984  0.16643986448682105           C        
         C210      0.3067003241304391  0.722751742937215   0.833560128018004   C        
         C211      0.3067003234750898  0.277248260676735   0.16643986749080872           C        
         C212      0.6932996713396605  0.27724825002333825           0.8335601257717512 C        
         C213      0.7227517545795026  0.8335601279938651  0.3067003230046837  C        
         C214      0.7227517337817745  0.1664398622167904  0.693299685512273   C        
         C215      0.27724824886271016           0.8335601289308098  0.69329967733204   C        
         C216      0.2772482561832524  0.16643986879086306           0.30670031757618116          C        
         C217      0.8066836583826943  0.6664386851501557  0.7772471269438405  C        
         C218      0.19331633947628118           0.33356131777828096           0.777247130465725  C        
         C219      0.19331634517299368           0.6664386737341604  0.22275285543441814          C        
         C220      0.8066836536983678  0.3335613299594017  0.22275285255280144           C        
         C221      0.777247147824403   0.8066836536501883  0.6664386735167779  C        
         C222      0.7772471326939143  0.19331634357262384           0.33356131661181276          C        
         C223      0.22275285821596685           0.19331634546957505           0.6664386781659454 C        
         C224      0.22275287039570896           0.8066836602423602  0.33356131565291974          C        
         C225      0.6664386775363335  0.7772471328140494  0.8066836534537435  C        
         C226      0.3335613203274241  0.7772471324782126  0.19331634794913788           C        
         C227      0.6664386846997682  0.22275287649203568           0.1933163436021877 C        
         C228      0.3335613212285975  0.22275286741999736           0.8066836519419013 C        
         C229      0.1664398657802442  0.3067003182891262  0.7227517388198149  C        
         C230      0.8335601341138096  0.69329968364908    0.7227517348371815  C        
         C231      0.1664398757867696  0.6932996737324315  0.27724824360812655           C        
         C232      0.8335601222261492  0.30670032952875204           0.2772482399639187 C        
         C233      0.30670032345737624           0.27724825761265864           0.8335601279217452 C        
         C234      0.6932996807908466  0.2772482687442339  0.1664398647706403  C        
         C235      0.6932996751764996  0.7227517423774642  0.8335601289588713  C        
         C236      0.30670032354526866           0.7227517409057872  0.16643987032702232          C        
         C237      0.2772482465922894  0.16643987353334352           0.6932996773974254 C        
         C238      0.2772482605001841  0.8335601349961804  0.30670031730968517           C        
         C239      0.7227517438989757  0.16643986969171815           0.30670031766838135          C        
         C240      0.7227517609779176  0.8335601231998717  0.6932996734411868  C        
         C241      0.22129393964916724           0.3063248295308753  0.22216933264751748          C        
         C242      0.7787060632394763  0.6936751734243197  0.22216933588460872           C        
         C243      0.7787060614824751  0.3063248281879879  0.7778306633682843  C        
         C244      0.22129393737698205           0.6936751706989616  0.7778306669362689 C        
         C245      0.22216933461907856           0.2212939363044872  0.30632482795529253          C        
         C246      0.22216933600912403           0.7787060630161954  0.693675173969855  C        
         C247      0.7778306642574209  0.7787060633171691  0.30632482802431665           C        
         C248      0.7778306709788093  0.22129393551991036           0.6936751653202801 C        
         C249      0.30632483012023104           0.222169334891737   0.2212939366264053 C        
         C250      0.693675175809328   0.22216933958865695           0.7787060603266642 C        
         C251      0.30632482909927866           0.7778306640780307  0.7787060607043658 C        
         C252      0.6936751656308306  0.7778306699224629  0.2212939382342964  C        
         C253      0.8063109049221423  0.7212693232243996  0.27784864265299425           C        
         C254      0.19368909560318007           0.2787306778096237  0.277848638447566  C        
         C255      0.8063109082657438  0.27873067684955327           0.7221513577947475 C        
         C256      0.19368909577193355           0.7212693226291498  0.7221513608201954 C        
         C257      0.7212693246765501  0.7221513653845015  0.1936891023096886  C        
         C258      0.27873067741013446           0.7221513593927061  0.8063109048098026 C        
         C259      0.278730678402904   0.27784864061381254           0.19368909560276648          C        
         C260      0.7212693226893417  0.2778486446054184  0.8063109060494108  C        
         C261      0.722151359185778   0.8063109106566988  0.27873067879771907           C        
         C262      0.7221513645534798  0.19368909882043803           0.721269321409107  C        
         C263      0.27784864194114217           0.8063109086346611  0.7212693221646783 C        
         C264      0.2778486398188038  0.193689094220524   0.278730675288573   C        
         C265      0.7787060613899898  0.693675166841193   0.7778306699345381  C        
         C266      0.2212939365457666  0.30632483322930004           0.7778306687913287 C        
         C267      0.2212939385848881  0.6936751774707433  0.22216934057897778           C        
         C268      0.7787060608022227  0.30632482125494354           0.22216934108780578          C        
         C269      0.7778306595455361  0.7787060617284999  0.6936751803962972  C        
         C270      0.7778306675753429  0.22129393843728115           0.30632483172290426          C        
         C271      0.22216933567441297           0.2212939389953981  0.6936751749395523 C        
         C272      0.22216932867374548           0.7787060630831139  0.3063248361675183 C        
         C273      0.693675168563995   0.7778306638065804  0.7787060613393827  C        
         C274      0.3063248266021477  0.7778306649126959  0.22129393992320553           C        
         C275      0.6936751688464503  0.222169332333837   0.22129393745521608           C        
         C276      0.306324826683634   0.22216933882522324           0.7787060611669622 C        
         C277      0.1936890957337318  0.27873068023556435           0.7221513623916571 C        
         C278      0.806310900156817   0.7212693211861918  0.7221513637678301  C        
         C279      0.19368908726780015           0.7212693219766183  0.27784864719880464          C        
         C280      0.8063109121993082  0.27873067880982777           0.2778486475394863 C        
         C281      0.27873067573412574           0.2778486438108931  0.8063109061547385 C        
         C282      0.7212693233363023  0.27784863802045434           0.19368910092610653          C        
         C283      0.721269320876338   0.7221513591193526  0.8063109067229425  C        
         C284      0.2787306762726548  0.7221513595262632  0.19368909937573558           C        
         C285      0.277848641202167   0.1936890933978527  0.7212693229643063  C        
         C286      0.2778486341429921  0.8063109039358265  0.27873068022317754           C        
         C287      0.722151362448548   0.19368909391907363           0.2787306773118686 C        
         C288      0.7221513531661218  0.8063109112399459  0.7212693235658747  C        
         C289      0.22187947646148765           0.27814221630857844           0.25001142497825957          C        
         C290      0.7781205256442293  0.7218577832220819  0.250011426236764   C        
         C291      0.7781205213535588  0.27814221782324783           0.749988576431681  C        
         C292      0.22187947582606418           0.7218577838912891  0.7499885730519874 C        
         C293      0.2500114235637281  0.22187947736878127           0.2781422167445047 C        
         C294      0.2500114216135337  0.7781205219186655  0.721857779638911   C        
         C295      0.7499885814919723  0.7781205217658461  0.27814222094596114           C        
         C296      0.7499885693081795  0.22187947304790193           0.7218577855590638 C        
         C297      0.2781422191463181  0.2500114256906005  0.2218794752951677  C        
         C298      0.7218577770795782  0.25001141999071214           0.7781205201859598 C        
         C299      0.27814221966766284           0.749988576144026   0.7781205213893485 C        
         C300      0.7218577872990726  0.749988569861888   0.22187947497906435           C        
         C301      0.778120524931845   0.7218577844177313  0.7499885702660528  C        
         C302      0.22187947366776992           0.27814221726341865           0.7499885716449131 C        
         C303      0.2218794796405588  0.721857778029678   0.25001142021807393           C        
         C304      0.7781205192348601  0.27814222480316797           0.2500114176345152 C        
         C305      0.7499885831350337  0.7781205180294358  0.7218577767863593  C        
         C306      0.7499885749287514  0.22187947833578314           0.27814221686446855          C        
         C307      0.2500114192917364  0.22187948070439348           0.7218577795184965 C        
         C308      0.2500114277144478  0.7781205249498592  0.2781422167295299  C        
         C309      0.7218577798686924  0.749988574373721   0.7781205220234977  C        
         C310      0.2781422190800564  0.7499885755782713  0.22187947864691013           C        
         C311      0.7218577839953843  0.25001143059588793           0.22187947466348165          C        
         C312      0.27814221882286416           0.25001142509142815           0.7781205212540993 C        
         C313      0.2500104378486997  0.30906209014533703           0.19095192278474932          C        
         C314      0.7499895618178062  0.6909379075206572  0.1909519267594756  C        
         C315      0.7499895634455183  0.3090620887821349  0.809048075981999   C        
         C316      0.2500104378639239  0.6909379108165871  0.8090480751317645  C        
         C317      0.19095192488964    0.25001043735162043           0.3090620897818186 C        
         C318      0.19095192282843926           0.749989564350357   0.6909379096199438 C        
         C319      0.8090480777138256  0.7499895650481211  0.30906209249016386           C        
         C320      0.8090480733149206  0.25001043782634663           0.6909379087891345 C        
         C321      0.30906209072038693           0.19095192586948176           0.25001043766682096          C        
         C322      0.690937908772477   0.19095192298336672           0.7499895623236734 C        
         C323      0.30906208823201514           0.8090480768513385  0.7499895631451899 C        
         C324      0.6909379122882406  0.8090480734234824  0.25001044075816087           C        
         C325      0.7499895603802943  0.690937910318219   0.809048075547225   C        
         C326      0.25001043604461515           0.30906209082467395           0.8090480759466472 C        
         C327      0.25001043510348375           0.6909379107007517  0.1909519230418182 C        
         C328      0.7499895649650418  0.3090620912817728  0.19095192133147967           C        
         C329      0.80904807779819    0.7499895637002814  0.69093790942821    C        
         C330      0.809048077046815   0.2500104359217563  0.30906208734170465           C        
         C331      0.19095192154930804           0.2500104378315696  0.6909379097892854 C        
         C332      0.19095192337439765           0.7499895636464768  0.3090620897695308 C        
         C333      0.6909379133032485  0.8090480767500414  0.7499895657045708  C        
         C334      0.30906208928437373           0.8090480755919499  0.250010441188238  C        
         C335      0.6909379115080065  0.190951926156142   0.25001043885710733           C        
         C336      0.30906208664090107           0.19095192513636408           0.7499895637051928 C        
         C337      0.2705213693677375  0.34727287842631305           0.19388292430347037          C        
         C338      0.7294786323298494  0.6527271212263873  0.1938829266868926  C        
         C339      0.7294786311548748  0.34727287801687406           0.8061170748376936 C        
         C340      0.2705213688577345  0.6527271221654388  0.8061170745801264  C        
         C341      0.19388292487623185           0.27052136979045166           0.3472728777953975 C        
         C342      0.19388292479094657           0.7294786314201358  0.6527271212891784 C        
         C343      0.8061170761801901  0.7294786317373936  0.3472728804764242  C        
         C344      0.806117075513567   0.27052136864657206           0.6527271202755642 C        
         C345      0.34727287769970544           0.19388292513327984           0.2705213699390316 C        
         C346      0.652727122204299   0.19388292441113433           0.7294786291990926 C        
         C347      0.34727287668244344           0.8061170760029764  0.729478628635843  C        
         C348      0.652727124408321   0.8061170760566931  0.2705213729857689  C        
         C349      0.8472550015472284  0.7705080335489659  0.30612806825497274           C        
         C350      0.15274500054398796           0.22949196706314612           0.306128065965279  C        
         C351      0.8472549987787487  0.2294919666669401  0.6938719327985556  C        
         C352      0.1527449994742522  0.770508033501441   0.6938719333000866  C        
         C353      0.7705080337148634  0.6938719345762606  0.15274500220341686           C        
         C354      0.22949196781226097           0.6938719345752944  0.8472549996399625 C        
         C355      0.22949196843877137           0.30612806602558235           0.15274499882912818          C        
         C356      0.7705080326128939  0.30612806602878684           0.8472549995586786 C        
         C357      0.6938719355399837  0.8472549986530341  0.22949196819977996           C        
         C358      0.6938719343519938  0.15274500050667322           0.7705080332702642 C        
         C359      0.3061280659084331  0.8472549999487322  0.7705080332241081  C        
         C360      0.30612806596809505           0.15274500166136698           0.2294919657222178 C        
         C361      0.7294786297820379  0.6527271214814108  0.8061170757873218  C        
         C362      0.270521367684987   0.34727287966528114           0.8061170754112437 C        
         C363      0.27052136772821433           0.6527271222428285  0.19388292638086582          C        
         C364      0.7294786321924674  0.34727287912623955           0.19388292550325112          C        
         C365      0.80611707452537    0.7294786311257334  0.6527271213668795  C        
         C366      0.8061170762197107  0.27052136985099196           0.34727287819613517          C        
         C367      0.193882923913526   0.2705213704182094  0.6527271215919219  C        
         C368      0.19388292272054922           0.7294786303637956  0.34727287970839726          C        
         C369      0.6527271237032785  0.806117075456689   0.7294786297560724  C        
         C370      0.3472728761235821  0.806117076059856   0.27052137317596325           C        
         C371      0.6527271235034925  0.1938829252712498  0.2705213706104751  C        
         C372      0.34727287537922846           0.1938829260211275  0.7294786294331198 C        
         C373      0.15274499851469062           0.22949196836132416           0.6938719338537634 C        
         C374      0.8472550002836012  0.7705080323670487  0.6938719344462069  C        
         C375      0.15274499869760758           0.7705080326639673  0.30612806842753315          C        
         C376      0.8472550007459131  0.22949196760621474           0.3061280668304884 C        
         C377      0.2294919663110993  0.30612806762474    0.847255000429738   C        
         C378      0.7705080336773585  0.3061280666200692  0.15274499937810831           C        
         C379      0.7705080312565639  0.693871934153368   0.8472549999303063  C        
         C380      0.22949196692362683           0.6938719346974587  0.1527450004380213 C        
         C381      0.3061280644239888  0.15274500222199403           0.7705080338585931 C        
         C382      0.3061280641096811  0.8472549992681778  0.22949196911461345           C        
         C383      0.6938719349473396  0.1527450018644481  0.2294919665083797  C        
         C384      0.6938719335257516  0.8472549996137998  0.7705080346690254  C        
         N1        0.2500129182125967  0.25001291729181846           0.2500129144483425 N        
         N2        0.7499870835538825  0.7499870845094765  0.2500129187509001  N        
         N3        0.749987084872597   0.2500129174121272  0.7499870819639983  N        
         N4        0.250012916848165   0.7499870841461402  0.749987083868601   N        
         N5        0.7499870809515685  0.7499870835069808  0.7499870861409688  N        
         N6        0.2500129157209481  0.25001291885354016           0.7499870852487487 N        
         N7        0.2500129134619234  0.7499870833196911  0.2500129198994025  N        
         N8        0.7499870850849839  0.25001291592432806           0.25001291803721637          N        
         O1        0.03906435371940987           0.46092926977449056           0.21772934153282011          O        
         O2        0.9609356460582893  0.5390707291919393  0.21772934013215828           O        
         O3        0.9609356580857897  0.4609292563974102  0.7822706493635736  O        
         O4        0.039064337143740226          0.5390707463810939  0.7822706500559706 O        
         O5        0.21772936343878868           0.03906434896861705           0.4609292498237837 O        
         O6        0.21772936718992125           0.9609356625693897  0.5390707544055287 O        
         O7        0.7822706353256064  0.9609356882820448  0.46092922763449756           O        
         O8        0.7822706407848512  0.03906431690537109           0.5390707699380961 O        
         O9        0.4609292533500761  0.21772928230601135           0.039064273792720226         O        
         O10       0.5390707466759271  0.21772928624214574           0.9609357232879489 O        
         O11       0.46092928232165586           0.7822707115154733  0.9609356839998119 O        
         O12       0.5390707137065907  0.782270716439407   0.039064329156613634         O        
         O13       0.9611121763221905  0.5391564364938735  0.2816436269473599  O        
         O14       0.038887823648065416          0.46084356435184726           0.2816436283329937 O        
         O15       0.9611121758464035  0.460843570583212   0.7183563617525759  O        
         O16       0.038887822279956095          0.5391564298102995  0.7183563632011319 O        
         O17       0.5391564509776396  0.7183564221760754  0.03888784554169136           O        
         O18       0.4608435491294973  0.7183564166935127  0.9611121625406647  O        
         O19       0.46084355489531975           0.28164357674152923           0.03888785002578863          O        
         O20       0.539156445123492   0.28164358146430024           0.9611121504614335 O        
         O21       0.7183563504374677  0.9611121774918048  0.4608435790820437  O        
         O22       0.7183563563874061  0.038887826161132885          0.5391564225335866 O        
         O23       0.28164365218589943           0.9611121849488516  0.5391564251017563 O        
         O24       0.28164364849936285           0.03888782238570867           0.46084357462519787          O        
         O25       0.9609356905975514  0.5390707682610025  0.7822706512270304  O        
         O26       0.03906430374493677           0.46092923020211896           0.7822706487628449 O        
         O27       0.03906428404675956           0.5390707774326462  0.21772934178169062          O        
         O28       0.9609357152736671  0.4609292231057772  0.2177293428726617  O        
         O29       0.7822706356325831  0.9609356637066933  0.5390707540929605  O        
         O30       0.7822706411291257  0.03906434089873899           0.46092924916668243          O        
         O31       0.21772936731074946           0.03906431901606384           0.5390707729166322 O        
         O32       0.21772936336597518           0.9609356938147273  0.46092922478804793          O        
         O33       0.5390707497939627  0.7822707123175647  0.960935730577669   O        
         O34       0.46092925390156564           0.7822707138272645  0.03906428252566154          O        
         O35       0.5390707145816288  0.21772928068943778           0.039064318956105196         O        
         O36       0.46092928610438655           0.217729283191109   0.9609356786831587 O        
         O37       0.03888782722056256           0.46084357649821456           0.718356362045159  O        
         O38       0.9611121690988161  0.5391564249968848  0.7183563641581776  O        
         O39       0.03888783537248745           0.5391564256419348  0.28164362925566727          O        
         O40       0.9611121653205154  0.4608435740696454  0.2816436306623778  O        
         O41       0.46084354744974726           0.2816435784302594  0.9611121574527206 O        
         O42       0.5391564530155104  0.28164357543477214           0.038887843303303866         O        
         O43       0.5391564437083503  0.71835641766321    0.9611121547331234  O        
         O44       0.46084355580805053           0.7183564184765362  0.038887852497623956         O        
         O45       0.2816436527751756  0.038887826590149215          0.539156419771164  O        
         O46       0.28164364769428124           0.9611121782657658  0.4608435793442292 O        
         O47       0.7183563558169825  0.038887822388994735          0.4608435731880059 O        
         O48       0.7183563498079732  0.9611121808558243  0.5391564258861297  O
_cell_angle_alpha                       90.00000015027142
_cell_angle_beta                        89.99999988817311
_cell_angle_gamma                       90.0000003509105
_cell_length_a                          35.726611656703
_cell_length_b                          35.726611709246
_cell_length_c                          35.726611300868
loop_
  _symmetry_equiv_pos_as_xyz
         'x, y, z' 
_symmetry_int_tables_number             1
_symmetry_space_group_name_H-M          'P 1'