# generated using pymatgen
data_Cu3H48C78N2O15
_symmetry_space_group_name_H-M   'P 1'
_cell_length_a   60.91070000
_cell_length_b   60.91070000
_cell_length_c   60.91070000
_cell_angle_alpha   90.00000000
_cell_angle_beta   90.00000000
_cell_angle_gamma   90.00000000
_symmetry_Int_Tables_number   1
_chemical_formula_structural   Cu3H48C78N2O15
_chemical_formula_sum   'Cu48 H768 C1248 N32 O240'
_cell_volume   225985.60271955
_cell_formula_units_Z   16
loop_
 _symmetry_equiv_pos_site_id
 _symmetry_equiv_pos_as_xyz
  1  'x, y, z'
loop_
 _atom_site_type_symbol
 _atom_site_label
 _atom_site_symmetry_multiplicity
 _atom_site_fract_x
 _atom_site_fract_y
 _atom_site_fract_z
 _atom_site_occupancy
  Cu  Cu0  1  0.23476290  0.00000000  0.23476290  1
  Cu  Cu1  1  0.76523710  0.00000000  0.23476290  1
  Cu  Cu2  1  0.76523710  0.00000000  0.76523710  1
  Cu  Cu3  1  0.23476290  0.00000000  0.76523710  1
  Cu  Cu4  1  0.23476290  0.23476290  0.00000000  1
  Cu  Cu5  1  0.23476290  0.76523710  0.00000000  1
  Cu  Cu6  1  0.76523710  0.76523710  0.00000000  1
  Cu  Cu7  1  0.76523710  0.23476290  0.00000000  1
  Cu  Cu8  1  0.00000000  0.23476290  0.23476290  1
  Cu  Cu9  1  0.00000000  0.23476290  0.76523710  1
  Cu  Cu10  1  0.00000000  0.76523710  0.76523710  1
  Cu  Cu11  1  0.00000000  0.76523710  0.23476290  1
  Cu  Cu12  1  0.23476290  0.50000000  0.73476290  1
  Cu  Cu13  1  0.76523710  0.50000000  0.73476290  1
  Cu  Cu14  1  0.76523710  0.50000000  0.26523710  1
  Cu  Cu15  1  0.23476290  0.50000000  0.26523710  1
  Cu  Cu16  1  0.23476290  0.73476290  0.50000000  1
  Cu  Cu17  1  0.23476290  0.26523710  0.50000000  1
  Cu  Cu18  1  0.76523710  0.26523710  0.50000000  1
  Cu  Cu19  1  0.76523710  0.73476290  0.50000000  1
  Cu  Cu20  1  0.00000000  0.73476290  0.73476290  1
  Cu  Cu21  1  0.00000000  0.73476290  0.26523710  1
  Cu  Cu22  1  0.00000000  0.26523710  0.26523710  1
  Cu  Cu23  1  0.00000000  0.26523710  0.73476290  1
  Cu  Cu24  1  0.73476290  0.00000000  0.73476290  1
  Cu  Cu25  1  0.26523710  0.00000000  0.73476290  1
  Cu  Cu26  1  0.26523710  0.00000000  0.26523710  1
  Cu  Cu27  1  0.73476290  0.00000000  0.26523710  1
  Cu  Cu28  1  0.73476290  0.23476290  0.50000000  1
  Cu  Cu29  1  0.73476290  0.76523710  0.50000000  1
  Cu  Cu30  1  0.26523710  0.76523710  0.50000000  1
  Cu  Cu31  1  0.26523710  0.23476290  0.50000000  1
  Cu  Cu32  1  0.50000000  0.23476290  0.73476290  1
  Cu  Cu33  1  0.50000000  0.23476290  0.26523710  1
  Cu  Cu34  1  0.50000000  0.76523710  0.26523710  1
  Cu  Cu35  1  0.50000000  0.76523710  0.73476290  1
  Cu  Cu36  1  0.73476290  0.50000000  0.23476290  1
  Cu  Cu37  1  0.26523710  0.50000000  0.23476290  1
  Cu  Cu38  1  0.26523710  0.50000000  0.76523710  1
  Cu  Cu39  1  0.73476290  0.50000000  0.76523710  1
  Cu  Cu40  1  0.73476290  0.73476290  0.00000000  1
  Cu  Cu41  1  0.73476290  0.26523710  0.00000000  1
  Cu  Cu42  1  0.26523710  0.26523710  0.00000000  1
  Cu  Cu43  1  0.26523710  0.73476290  0.00000000  1
  Cu  Cu44  1  0.50000000  0.73476290  0.23476290  1
  Cu  Cu45  1  0.50000000  0.73476290  0.76523710  1
  Cu  Cu46  1  0.50000000  0.26523710  0.76523710  1
  Cu  Cu47  1  0.50000000  0.26523710  0.23476290  1
  O  O48  1  0.25471700  0.01716600  0.22161500  1
  O  O49  1  0.74528300  0.98283400  0.22161500  1
  O  O50  1  0.74528300  0.01716600  0.77838500  1
  O  O51  1  0.25471700  0.98283400  0.77838500  1
  O  O52  1  0.22161500  0.25471700  0.01716600  1
  O  O53  1  0.22161500  0.74528300  0.98283400  1
  O  O54  1  0.77838500  0.74528300  0.01716600  1
  O  O55  1  0.77838500  0.25471700  0.98283400  1
  O  O56  1  0.01716600  0.22161500  0.25471700  1
  O  O57  1  0.98283400  0.22161500  0.74528300  1
  O  O58  1  0.01716600  0.77838500  0.74528300  1
  O  O59  1  0.98283400  0.77838500  0.25471700  1
  O  O60  1  0.01716600  0.25471700  0.77838500  1
  O  O61  1  0.98283400  0.74528300  0.77838500  1
  O  O62  1  0.01716600  0.74528300  0.22161500  1
  O  O63  1  0.98283400  0.25471700  0.22161500  1
  O  O64  1  0.25471700  0.22161500  0.98283400  1
  O  O65  1  0.74528300  0.22161500  0.01716600  1
  O  O66  1  0.74528300  0.77838500  0.98283400  1
  O  O67  1  0.25471700  0.77838500  0.01716600  1
  O  O68  1  0.22161500  0.01716600  0.74528300  1
  O  O69  1  0.22161500  0.98283400  0.25471700  1
  O  O70  1  0.77838500  0.01716600  0.25471700  1
  O  O71  1  0.77838500  0.98283400  0.74528300  1
  O  O72  1  0.25471700  0.51716600  0.72161500  1
  O  O73  1  0.74528300  0.48283400  0.72161500  1
  O  O74  1  0.74528300  0.51716600  0.27838500  1
  O  O75  1  0.25471700  0.48283400  0.27838500  1
  O  O76  1  0.22161500  0.75471700  0.51716600  1
  O  O77  1  0.22161500  0.24528300  0.48283400  1
  O  O78  1  0.77838500  0.24528300  0.51716600  1
  O  O79  1  0.77838500  0.75471700  0.48283400  1
  O  O80  1  0.01716600  0.72161500  0.75471700  1
  O  O81  1  0.98283400  0.72161500  0.24528300  1
  O  O82  1  0.01716600  0.27838500  0.24528300  1
  O  O83  1  0.98283400  0.27838500  0.75471700  1
  O  O84  1  0.01716600  0.75471700  0.27838500  1
  O  O85  1  0.98283400  0.24528300  0.27838500  1
  O  O86  1  0.01716600  0.24528300  0.72161500  1
  O  O87  1  0.98283400  0.75471700  0.72161500  1
  O  O88  1  0.25471700  0.72161500  0.48283400  1
  O  O89  1  0.74528300  0.72161500  0.51716600  1
  O  O90  1  0.74528300  0.27838500  0.48283400  1
  O  O91  1  0.25471700  0.27838500  0.51716600  1
  O  O92  1  0.22161500  0.51716600  0.24528300  1
  O  O93  1  0.22161500  0.48283400  0.75471700  1
  O  O94  1  0.77838500  0.51716600  0.75471700  1
  O  O95  1  0.77838500  0.48283400  0.24528300  1
  O  O96  1  0.75471700  0.01716600  0.72161500  1
  O  O97  1  0.24528300  0.98283400  0.72161500  1
  O  O98  1  0.24528300  0.01716600  0.27838500  1
  O  O99  1  0.75471700  0.98283400  0.27838500  1
  O  O100  1  0.72161500  0.25471700  0.51716600  1
  O  O101  1  0.72161500  0.74528300  0.48283400  1
  O  O102  1  0.27838500  0.74528300  0.51716600  1
  O  O103  1  0.27838500  0.25471700  0.48283400  1
  O  O104  1  0.51716600  0.22161500  0.75471700  1
  O  O105  1  0.48283400  0.22161500  0.24528300  1
  O  O106  1  0.51716600  0.77838500  0.24528300  1
  O  O107  1  0.48283400  0.77838500  0.75471700  1
  O  O108  1  0.51716600  0.25471700  0.27838500  1
  O  O109  1  0.48283400  0.74528300  0.27838500  1
  O  O110  1  0.51716600  0.74528300  0.72161500  1
  O  O111  1  0.48283400  0.25471700  0.72161500  1
  O  O112  1  0.75471700  0.22161500  0.48283400  1
  O  O113  1  0.24528300  0.22161500  0.51716600  1
  O  O114  1  0.24528300  0.77838500  0.48283400  1
  O  O115  1  0.75471700  0.77838500  0.51716600  1
  O  O116  1  0.72161500  0.01716600  0.24528300  1
  O  O117  1  0.72161500  0.98283400  0.75471700  1
  O  O118  1  0.27838500  0.01716600  0.75471700  1
  O  O119  1  0.27838500  0.98283400  0.24528300  1
  O  O120  1  0.75471700  0.51716600  0.22161500  1
  O  O121  1  0.24528300  0.48283400  0.22161500  1
  O  O122  1  0.24528300  0.51716600  0.77838500  1
  O  O123  1  0.75471700  0.48283400  0.77838500  1
  O  O124  1  0.72161500  0.75471700  0.01716600  1
  O  O125  1  0.72161500  0.24528300  0.98283400  1
  O  O126  1  0.27838500  0.24528300  0.01716600  1
  O  O127  1  0.27838500  0.75471700  0.98283400  1
  O  O128  1  0.51716600  0.72161500  0.25471700  1
  O  O129  1  0.48283400  0.72161500  0.74528300  1
  O  O130  1  0.51716600  0.27838500  0.74528300  1
  O  O131  1  0.48283400  0.27838500  0.25471700  1
  O  O132  1  0.51716600  0.75471700  0.77838500  1
  O  O133  1  0.48283400  0.24528300  0.77838500  1
  O  O134  1  0.51716600  0.24528300  0.22161500  1
  O  O135  1  0.48283400  0.75471700  0.22161500  1
  O  O136  1  0.75471700  0.72161500  0.98283400  1
  O  O137  1  0.24528300  0.72161500  0.01716600  1
  O  O138  1  0.24528300  0.27838500  0.98283400  1
  O  O139  1  0.75471700  0.27838500  0.01716600  1
  O  O140  1  0.72161500  0.51716600  0.74528300  1
  O  O141  1  0.72161500  0.48283400  0.25471700  1
  O  O142  1  0.27838500  0.51716600  0.25471700  1
  O  O143  1  0.27838500  0.48283400  0.74528300  1
  O  O144  1  0.28067600  0.02485500  0.25032500  1
  O  O145  1  0.71932400  0.97514500  0.25032500  1
  O  O146  1  0.71932400  0.02485500  0.74967500  1
  O  O147  1  0.28067600  0.97514500  0.74967500  1
  O  O148  1  0.25032500  0.28067600  0.02485500  1
  O  O149  1  0.25032500  0.71932400  0.97514500  1
  O  O150  1  0.74967500  0.71932400  0.02485500  1
  O  O151  1  0.74967500  0.28067600  0.97514500  1
  O  O152  1  0.02485500  0.25032500  0.28067600  1
  O  O153  1  0.97514500  0.25032500  0.71932400  1
  O  O154  1  0.02485500  0.74967500  0.71932400  1
  O  O155  1  0.97514500  0.74967500  0.28067600  1
  O  O156  1  0.02485500  0.28067600  0.74967500  1
  O  O157  1  0.97514500  0.71932400  0.74967500  1
  O  O158  1  0.02485500  0.71932400  0.25032500  1
  O  O159  1  0.97514500  0.28067600  0.25032500  1
  O  O160  1  0.28067600  0.25032500  0.97514500  1
  O  O161  1  0.71932400  0.25032500  0.02485500  1
  O  O162  1  0.71932400  0.74967500  0.97514500  1
  O  O163  1  0.28067600  0.74967500  0.02485500  1
  O  O164  1  0.25032500  0.02485500  0.71932400  1
  O  O165  1  0.25032500  0.97514500  0.28067600  1
  O  O166  1  0.74967500  0.02485500  0.28067600  1
  O  O167  1  0.74967500  0.97514500  0.71932400  1
  O  O168  1  0.28067600  0.52485500  0.75032500  1
  O  O169  1  0.71932400  0.47514500  0.75032500  1
  O  O170  1  0.71932400  0.52485500  0.24967500  1
  O  O171  1  0.28067600  0.47514500  0.24967500  1
  O  O172  1  0.25032500  0.78067600  0.52485500  1
  O  O173  1  0.25032500  0.21932400  0.47514500  1
  O  O174  1  0.74967500  0.21932400  0.52485500  1
  O  O175  1  0.74967500  0.78067600  0.47514500  1
  O  O176  1  0.02485500  0.75032500  0.78067600  1
  O  O177  1  0.97514500  0.75032500  0.21932400  1
  O  O178  1  0.02485500  0.24967500  0.21932400  1
  O  O179  1  0.97514500  0.24967500  0.78067600  1
  O  O180  1  0.02485500  0.78067600  0.24967500  1
  O  O181  1  0.97514500  0.21932400  0.24967500  1
  O  O182  1  0.02485500  0.21932400  0.75032500  1
  O  O183  1  0.97514500  0.78067600  0.75032500  1
  O  O184  1  0.28067600  0.75032500  0.47514500  1
  O  O185  1  0.71932400  0.75032500  0.52485500  1
  O  O186  1  0.71932400  0.24967500  0.47514500  1
  O  O187  1  0.28067600  0.24967500  0.52485500  1
  O  O188  1  0.25032500  0.52485500  0.21932400  1
  O  O189  1  0.25032500  0.47514500  0.78067600  1
  O  O190  1  0.74967500  0.52485500  0.78067600  1
  O  O191  1  0.74967500  0.47514500  0.21932400  1
  O  O192  1  0.78067600  0.02485500  0.75032500  1
  O  O193  1  0.21932400  0.97514500  0.75032500  1
  O  O194  1  0.21932400  0.02485500  0.24967500  1
  O  O195  1  0.78067600  0.97514500  0.24967500  1
  O  O196  1  0.75032500  0.28067600  0.52485500  1
  O  O197  1  0.75032500  0.71932400  0.47514500  1
  O  O198  1  0.24967500  0.71932400  0.52485500  1
  O  O199  1  0.24967500  0.28067600  0.47514500  1
  O  O200  1  0.52485500  0.25032500  0.78067600  1
  O  O201  1  0.47514500  0.25032500  0.21932400  1
  O  O202  1  0.52485500  0.74967500  0.21932400  1
  O  O203  1  0.47514500  0.74967500  0.78067600  1
  O  O204  1  0.52485500  0.28067600  0.24967500  1
  O  O205  1  0.47514500  0.71932400  0.24967500  1
  O  O206  1  0.52485500  0.71932400  0.75032500  1
  O  O207  1  0.47514500  0.28067600  0.75032500  1
  O  O208  1  0.78067600  0.25032500  0.47514500  1
  O  O209  1  0.21932400  0.25032500  0.52485500  1
  O  O210  1  0.21932400  0.74967500  0.47514500  1
  O  O211  1  0.78067600  0.74967500  0.52485500  1
  O  O212  1  0.75032500  0.02485500  0.21932400  1
  O  O213  1  0.75032500  0.97514500  0.78067600  1
  O  O214  1  0.24967500  0.02485500  0.78067600  1
  O  O215  1  0.24967500  0.97514500  0.21932400  1
  O  O216  1  0.78067600  0.52485500  0.25032500  1
  O  O217  1  0.21932400  0.47514500  0.25032500  1
  O  O218  1  0.21932400  0.52485500  0.74967500  1
  O  O219  1  0.78067600  0.47514500  0.74967500  1
  O  O220  1  0.75032500  0.78067600  0.02485500  1
  O  O221  1  0.75032500  0.21932400  0.97514500  1
  O  O222  1  0.24967500  0.21932400  0.02485500  1
  O  O223  1  0.24967500  0.78067600  0.97514500  1
  O  O224  1  0.52485500  0.75032500  0.28067600  1
  O  O225  1  0.47514500  0.75032500  0.71932400  1
  O  O226  1  0.52485500  0.24967500  0.71932400  1
  O  O227  1  0.47514500  0.24967500  0.28067600  1
  O  O228  1  0.52485500  0.78067600  0.74967500  1
  O  O229  1  0.47514500  0.21932400  0.74967500  1
  O  O230  1  0.52485500  0.21932400  0.25032500  1
  O  O231  1  0.47514500  0.78067600  0.25032500  1
  O  O232  1  0.78067600  0.75032500  0.97514500  1
  O  O233  1  0.21932400  0.75032500  0.02485500  1
  O  O234  1  0.21932400  0.24967500  0.97514500  1
  O  O235  1  0.78067600  0.24967500  0.02485500  1
  O  O236  1  0.75032500  0.52485500  0.71932400  1
  O  O237  1  0.75032500  0.47514500  0.28067600  1
  O  O238  1  0.24967500  0.52485500  0.28067600  1
  O  O239  1  0.24967500  0.47514500  0.71932400  1
  N  N288  1  0.34498700  0.15502700  0.15502700  1
  N  N289  1  0.65501300  0.84497300  0.15502700  1
  N  N290  1  0.65501300  0.15502700  0.84497300  1
  N  N291  1  0.34498700  0.84497300  0.84497300  1
  N  N292  1  0.15502700  0.34498700  0.15502700  1
  N  N293  1  0.15502700  0.65501300  0.84497300  1
  N  N294  1  0.84497300  0.65501300  0.15502700  1
  N  N295  1  0.84497300  0.34498700  0.84497300  1
  N  N296  1  0.15502700  0.15502700  0.34498700  1
  N  N297  1  0.84497300  0.15502700  0.65501300  1
  N  N298  1  0.15502700  0.84497300  0.65501300  1
  N  N299  1  0.84497300  0.84497300  0.34498700  1
  N  N300  1  0.15502700  0.34498700  0.84497300  1
  N  N301  1  0.84497300  0.65501300  0.84497300  1
  N  N302  1  0.15502700  0.65501300  0.15502700  1
  N  N303  1  0.84497300  0.34498700  0.15502700  1
  N  N304  1  0.34498700  0.15502700  0.84497300  1
  N  N305  1  0.65501300  0.15502700  0.15502700  1
  N  N306  1  0.65501300  0.84497300  0.84497300  1
  N  N307  1  0.34498700  0.84497300  0.15502700  1
  N  N308  1  0.15502700  0.15502700  0.65501300  1
  N  N309  1  0.15502700  0.84497300  0.34498700  1
  N  N310  1  0.84497300  0.15502700  0.34498700  1
  N  N311  1  0.84497300  0.84497300  0.65501300  1
  N  N312  1  0.34498700  0.65502700  0.65502700  1
  N  N313  1  0.65501300  0.34497300  0.65502700  1
  N  N314  1  0.65501300  0.65502700  0.34497300  1
  N  N315  1  0.34498700  0.34497300  0.34497300  1
  N  N316  1  0.34498700  0.65502700  0.34497300  1
  N  N317  1  0.65501300  0.65502700  0.65502700  1
  N  N318  1  0.65501300  0.34497300  0.34497300  1
  N  N319  1  0.34498700  0.34497300  0.65502700  1
  C  C320  1  0.26990140  0.02813900  0.23223100  1
  C  C321  1  0.73009860  0.97186100  0.23223100  1
  C  C322  1  0.73009860  0.02813900  0.76776900  1
  C  C323  1  0.26990140  0.97186100  0.76776900  1
  C  C324  1  0.23223100  0.26990140  0.02813900  1
  C  C325  1  0.23223100  0.73009860  0.97186100  1
  C  C326  1  0.76776900  0.73009860  0.02813900  1
  C  C327  1  0.76776900  0.26990140  0.97186100  1
  C  C328  1  0.02813900  0.23223100  0.26990140  1
  C  C329  1  0.97186100  0.23223100  0.73009860  1
  C  C330  1  0.02813900  0.76776900  0.73009860  1
  C  C331  1  0.97186100  0.76776900  0.26990140  1
  C  C332  1  0.02813900  0.26990140  0.76776900  1
  C  C333  1  0.97186100  0.73009860  0.76776900  1
  C  C334  1  0.02813900  0.73009860  0.23223100  1
  C  C335  1  0.97186100  0.26990140  0.23223100  1
  C  C336  1  0.26990140  0.23223100  0.97186100  1
  C  C337  1  0.73009860  0.23223100  0.02813900  1
  C  C338  1  0.73009860  0.76776900  0.97186100  1
  C  C339  1  0.26990140  0.76776900  0.02813900  1
  C  C340  1  0.23223100  0.02813900  0.73009860  1
  C  C341  1  0.23223100  0.97186100  0.26990140  1
  C  C342  1  0.76776900  0.02813900  0.26990140  1
  C  C343  1  0.76776900  0.97186100  0.73009860  1
  C  C344  1  0.26990140  0.52813900  0.73223100  1
  C  C345  1  0.73009860  0.47186100  0.73223100  1
  C  C346  1  0.73009860  0.52813900  0.26776900  1
  C  C347  1  0.26990140  0.47186100  0.26776900  1
  C  C348  1  0.23223100  0.76990140  0.52813900  1
  C  C349  1  0.23223100  0.23009860  0.47186100  1
  C  C350  1  0.76776900  0.23009860  0.52813900  1
  C  C351  1  0.76776900  0.76990140  0.47186100  1
  C  C352  1  0.02813900  0.73223100  0.76990140  1
  C  C353  1  0.97186100  0.73223100  0.23009860  1
  C  C354  1  0.02813900  0.26776900  0.23009860  1
  C  C355  1  0.97186100  0.26776900  0.76990140  1
  C  C356  1  0.02813900  0.76990140  0.26776900  1
  C  C357  1  0.97186100  0.23009860  0.26776900  1
  C  C358  1  0.02813900  0.23009860  0.73223100  1
  C  C359  1  0.97186100  0.76990140  0.73223100  1
  C  C360  1  0.26990140  0.73223100  0.47186100  1
  C  C361  1  0.73009860  0.73223100  0.52813900  1
  C  C362  1  0.73009860  0.26776900  0.47186100  1
  C  C363  1  0.26990140  0.26776900  0.52813900  1
  C  C364  1  0.23223100  0.52813900  0.23009860  1
  C  C365  1  0.23223100  0.47186100  0.76990140  1
  C  C366  1  0.76776900  0.52813900  0.76990140  1
  C  C367  1  0.76776900  0.47186100  0.23009860  1
  C  C368  1  0.76990140  0.02813900  0.73223100  1
  C  C369  1  0.23009860  0.97186100  0.73223100  1
  C  C370  1  0.23009860  0.02813900  0.26776900  1
  C  C371  1  0.76990140  0.97186100  0.26776900  1
  C  C372  1  0.73223100  0.26990140  0.52813900  1
  C  C373  1  0.73223100  0.73009860  0.47186100  1
  C  C374  1  0.26776900  0.73009860  0.52813900  1
  C  C375  1  0.26776900  0.26990140  0.47186100  1
  C  C376  1  0.52813900  0.23223100  0.76990140  1
  C  C377  1  0.47186100  0.23223100  0.23009860  1
  C  C378  1  0.52813900  0.76776900  0.23009860  1
  C  C379  1  0.47186100  0.76776900  0.76990140  1
  C  C380  1  0.52813900  0.26990140  0.26776900  1
  C  C381  1  0.47186100  0.73009860  0.26776900  1
  C  C382  1  0.52813900  0.73009860  0.73223100  1
  C  C383  1  0.47186100  0.26990140  0.73223100  1
  C  C384  1  0.76990140  0.23223100  0.47186100  1
  C  C385  1  0.23009860  0.23223100  0.52813900  1
  C  C386  1  0.23009860  0.76776900  0.47186100  1
  C  C387  1  0.76990140  0.76776900  0.52813900  1
  C  C388  1  0.73223100  0.02813900  0.23009860  1
  C  C389  1  0.73223100  0.97186100  0.76990140  1
  C  C390  1  0.26776900  0.02813900  0.76990140  1
  C  C391  1  0.26776900  0.97186100  0.23009860  1
  C  C392  1  0.76990140  0.52813900  0.23223100  1
  C  C393  1  0.23009860  0.47186100  0.23223100  1
  C  C394  1  0.23009860  0.52813900  0.76776900  1
  C  C395  1  0.76990140  0.47186100  0.76776900  1
  C  C396  1  0.73223100  0.76990140  0.02813900  1
  C  C397  1  0.73223100  0.23009860  0.97186100  1
  C  C398  1  0.26776900  0.23009860  0.02813900  1
  C  C399  1  0.26776900  0.76990140  0.97186100  1
  C  C400  1  0.52813900  0.73223100  0.26990140  1
  C  C401  1  0.47186100  0.73223100  0.73009860  1
  C  C402  1  0.52813900  0.26776900  0.73009860  1
  C  C403  1  0.47186100  0.26776900  0.26990140  1
  C  C404  1  0.52813900  0.76990140  0.76776900  1
  C  C405  1  0.47186100  0.23009860  0.76776900  1
  C  C406  1  0.52813900  0.23009860  0.23223100  1
  C  C407  1  0.47186100  0.76990140  0.23223100  1
  C  C408  1  0.76990140  0.73223100  0.97186100  1
  C  C409  1  0.23009860  0.73223100  0.02813900  1
  C  C410  1  0.23009860  0.26776900  0.97186100  1
  C  C411  1  0.76990140  0.26776900  0.02813900  1
  C  C412  1  0.73223100  0.52813900  0.73009860  1
  C  C413  1  0.73223100  0.47186100  0.26990140  1
  C  C414  1  0.26776900  0.52813900  0.26990140  1
  C  C415  1  0.26776900  0.47186100  0.73009860  1
  C  C416  1  0.28339800  0.04703500  0.21935700  1
  C  C417  1  0.71660200  0.95296500  0.21935700  1
  C  C418  1  0.71660200  0.04703500  0.78064300  1
  C  C419  1  0.28339800  0.95296500  0.78064300  1
  C  C420  1  0.21935700  0.28339800  0.04703500  1
  C  C421  1  0.21935700  0.71660200  0.95296500  1
  C  C422  1  0.78064300  0.71660200  0.04703500  1
  C  C423  1  0.78064300  0.28339800  0.95296500  1
  C  C424  1  0.04703500  0.21935700  0.28339800  1
  C  C425  1  0.95296500  0.21935700  0.71660200  1
  C  C426  1  0.04703500  0.78064300  0.71660200  1
  C  C427  1  0.95296500  0.78064300  0.28339800  1
  C  C428  1  0.04703500  0.28339800  0.78064300  1
  C  C429  1  0.95296500  0.71660200  0.78064300  1
  C  C430  1  0.04703500  0.71660200  0.21935700  1
  C  C431  1  0.95296500  0.28339800  0.21935700  1
  C  C432  1  0.28339800  0.21935700  0.95296500  1
  C  C433  1  0.71660200  0.21935700  0.04703500  1
  C  C434  1  0.71660200  0.78064300  0.95296500  1
  C  C435  1  0.28339800  0.78064300  0.04703500  1
  C  C436  1  0.21935700  0.04703500  0.71660200  1
  C  C437  1  0.21935700  0.95296500  0.28339800  1
  C  C438  1  0.78064300  0.04703500  0.28339800  1
  C  C439  1  0.78064300  0.95296500  0.71660200  1
  C  C440  1  0.28339800  0.54703500  0.71935700  1
  C  C441  1  0.71660200  0.45296500  0.71935700  1
  C  C442  1  0.71660200  0.54703500  0.28064300  1
  C  C443  1  0.28339800  0.45296500  0.28064300  1
  C  C444  1  0.21935700  0.78339800  0.54703500  1
  C  C445  1  0.21935700  0.21660200  0.45296500  1
  C  C446  1  0.78064300  0.21660200  0.54703500  1
  C  C447  1  0.78064300  0.78339800  0.45296500  1
  C  C448  1  0.04703500  0.71935700  0.78339800  1
  C  C449  1  0.95296500  0.71935700  0.21660200  1
  C  C450  1  0.04703500  0.28064300  0.21660200  1
  C  C451  1  0.95296500  0.28064300  0.78339800  1
  C  C452  1  0.04703500  0.78339800  0.28064300  1
  C  C453  1  0.95296500  0.21660200  0.28064300  1
  C  C454  1  0.04703500  0.21660200  0.71935700  1
  C  C455  1  0.95296500  0.78339800  0.71935700  1
  C  C456  1  0.28339800  0.71935700  0.45296500  1
  C  C457  1  0.71660200  0.71935700  0.54703500  1
  C  C458  1  0.71660200  0.28064300  0.45296500  1
  C  C459  1  0.28339800  0.28064300  0.54703500  1
  C  C460  1  0.21935700  0.54703500  0.21660200  1
  C  C461  1  0.21935700  0.45296500  0.78339800  1
  C  C462  1  0.78064300  0.54703500  0.78339800  1
  C  C463  1  0.78064300  0.45296500  0.21660200  1
  C  C464  1  0.78339800  0.04703500  0.71935700  1
  C  C465  1  0.21660200  0.95296500  0.71935700  1
  C  C466  1  0.21660200  0.04703500  0.28064300  1
  C  C467  1  0.78339800  0.95296500  0.28064300  1
  C  C468  1  0.71935700  0.28339800  0.54703500  1
  C  C469  1  0.71935700  0.71660200  0.45296500  1
  C  C470  1  0.28064300  0.71660200  0.54703500  1
  C  C471  1  0.28064300  0.28339800  0.45296500  1
  C  C472  1  0.54703500  0.21935700  0.78339800  1
  C  C473  1  0.45296500  0.21935700  0.21660200  1
  C  C474  1  0.54703500  0.78064300  0.21660200  1
  C  C475  1  0.45296500  0.78064300  0.78339800  1
  C  C476  1  0.54703500  0.28339800  0.28064300  1
  C  C477  1  0.45296500  0.71660200  0.28064300  1
  C  C478  1  0.54703500  0.71660200  0.71935700  1
  C  C479  1  0.45296500  0.28339800  0.71935700  1
  C  C480  1  0.78339800  0.21935700  0.45296500  1
  C  C481  1  0.21660200  0.21935700  0.54703500  1
  C  C482  1  0.21660200  0.78064300  0.45296500  1
  C  C483  1  0.78339800  0.78064300  0.54703500  1
  C  C484  1  0.71935700  0.04703500  0.21660200  1
  C  C485  1  0.71935700  0.95296500  0.78339800  1
  C  C486  1  0.28064300  0.04703500  0.78339800  1
  C  C487  1  0.28064300  0.95296500  0.21660200  1
  C  C488  1  0.78339800  0.54703500  0.21935700  1
  C  C489  1  0.21660200  0.45296500  0.21935700  1
  C  C490  1  0.21660200  0.54703500  0.78064300  1
  C  C491  1  0.78339800  0.45296500  0.78064300  1
  C  C492  1  0.71935700  0.78339800  0.04703500  1
  C  C493  1  0.71935700  0.21660200  0.95296500  1
  C  C494  1  0.28064300  0.21660200  0.04703500  1
  C  C495  1  0.28064300  0.78339800  0.95296500  1
  C  C496  1  0.54703500  0.71935700  0.28339800  1
  C  C497  1  0.45296500  0.71935700  0.71660200  1
  C  C498  1  0.54703500  0.28064300  0.71660200  1
  C  C499  1  0.45296500  0.28064300  0.28339800  1
  C  C500  1  0.54703500  0.78339800  0.78064300  1
  C  C501  1  0.45296500  0.21660200  0.78064300  1
  C  C502  1  0.54703500  0.21660200  0.21935700  1
  C  C503  1  0.45296500  0.78339800  0.21935700  1
  C  C504  1  0.78339800  0.71935700  0.95296500  1
  C  C505  1  0.21660200  0.71935700  0.04703500  1
  C  C506  1  0.21660200  0.28064300  0.95296500  1
  C  C507  1  0.78339800  0.28064300  0.04703500  1
  C  C508  1  0.71935700  0.54703500  0.71660200  1
  C  C509  1  0.71935700  0.45296500  0.28339800  1
  C  C510  1  0.28064300  0.54703500  0.28339800  1
  C  C511  1  0.28064300  0.45296500  0.71660200  1
  C  C512  1  0.27515600  0.05543700  0.19980700  1
  C  C513  1  0.72484400  0.94456300  0.19980700  1
  C  C514  1  0.72484400  0.05543700  0.80019300  1
  C  C515  1  0.27515600  0.94456300  0.80019300  1
  C  C516  1  0.19980700  0.27515600  0.05543700  1
  C  C517  1  0.19980700  0.72484400  0.94456300  1
  C  C518  1  0.80019300  0.72484400  0.05543700  1
  C  C519  1  0.80019300  0.27515600  0.94456300  1
  C  C520  1  0.05543700  0.19980700  0.27515600  1
  C  C521  1  0.94456300  0.19980700  0.72484400  1
  C  C522  1  0.05543700  0.80019300  0.72484400  1
  C  C523  1  0.94456300  0.80019300  0.27515600  1
  C  C524  1  0.05543700  0.27515600  0.80019300  1
  C  C525  1  0.94456300  0.72484400  0.80019300  1
  C  C526  1  0.05543700  0.72484400  0.19980700  1
  C  C527  1  0.94456300  0.27515600  0.19980700  1
  C  C528  1  0.27515600  0.19980700  0.94456300  1
  C  C529  1  0.72484400  0.19980700  0.05543700  1
  C  C530  1  0.72484400  0.80019300  0.94456300  1
  C  C531  1  0.27515600  0.80019300  0.05543700  1
  C  C532  1  0.19980700  0.05543700  0.72484400  1
  C  C533  1  0.19980700  0.94456300  0.27515600  1
  C  C534  1  0.80019300  0.05543700  0.27515600  1
  C  C535  1  0.80019300  0.94456300  0.72484400  1
  C  C536  1  0.27515600  0.55543700  0.69980700  1
  C  C537  1  0.72484400  0.44456300  0.69980700  1
  C  C538  1  0.72484400  0.55543700  0.30019300  1
  C  C539  1  0.27515600  0.44456300  0.30019300  1
  C  C540  1  0.19980700  0.77515600  0.55543700  1
  C  C541  1  0.19980700  0.22484400  0.44456300  1
  C  C542  1  0.80019300  0.22484400  0.55543700  1
  C  C543  1  0.80019300  0.77515600  0.44456300  1
  C  C544  1  0.05543700  0.69980700  0.77515600  1
  C  C545  1  0.94456300  0.69980700  0.22484400  1
  C  C546  1  0.05543700  0.30019300  0.22484400  1
  C  C547  1  0.94456300  0.30019300  0.77515600  1
  C  C548  1  0.05543700  0.77515600  0.30019300  1
  C  C549  1  0.94456300  0.22484400  0.30019300  1
  C  C550  1  0.05543700  0.22484400  0.69980700  1
  C  C551  1  0.94456300  0.77515600  0.69980700  1
  C  C552  1  0.27515600  0.69980700  0.44456300  1
  C  C553  1  0.72484400  0.69980700  0.55543700  1
  C  C554  1  0.72484400  0.30019300  0.44456300  1
  C  C555  1  0.27515600  0.30019300  0.55543700  1
  C  C556  1  0.19980700  0.55543700  0.22484400  1
  C  C557  1  0.19980700  0.44456300  0.77515600  1
  C  C558  1  0.80019300  0.55543700  0.77515600  1
  C  C559  1  0.80019300  0.44456300  0.22484400  1
  C  C560  1  0.77515600  0.05543700  0.69980700  1
  C  C561  1  0.22484400  0.94456300  0.69980700  1
  C  C562  1  0.22484400  0.05543700  0.30019300  1
  C  C563  1  0.77515600  0.94456300  0.30019300  1
  C  C564  1  0.69980700  0.27515600  0.55543700  1
  C  C565  1  0.69980700  0.72484400  0.44456300  1
  C  C566  1  0.30019300  0.72484400  0.55543700  1
  C  C567  1  0.30019300  0.27515600  0.44456300  1
  C  C568  1  0.55543700  0.19980700  0.77515600  1
  C  C569  1  0.44456300  0.19980700  0.22484400  1
  C  C570  1  0.55543700  0.80019300  0.22484400  1
  C  C571  1  0.44456300  0.80019300  0.77515600  1
  C  C572  1  0.55543700  0.27515600  0.30019300  1
  C  C573  1  0.44456300  0.72484400  0.30019300  1
  C  C574  1  0.55543700  0.72484400  0.69980700  1
  C  C575  1  0.44456300  0.27515600  0.69980700  1
  C  C576  1  0.77515600  0.19980700  0.44456300  1
  C  C577  1  0.22484400  0.19980700  0.55543700  1
  C  C578  1  0.22484400  0.80019300  0.44456300  1
  C  C579  1  0.77515600  0.80019300  0.55543700  1
  C  C580  1  0.69980700  0.05543700  0.22484400  1
  C  C581  1  0.69980700  0.94456300  0.77515600  1
  C  C582  1  0.30019300  0.05543700  0.77515600  1
  C  C583  1  0.30019300  0.94456300  0.22484400  1
  C  C584  1  0.77515600  0.55543700  0.19980700  1
  C  C585  1  0.22484400  0.44456300  0.19980700  1
  C  C586  1  0.22484400  0.55543700  0.80019300  1
  C  C587  1  0.77515600  0.44456300  0.80019300  1
  C  C588  1  0.69980700  0.77515600  0.05543700  1
  C  C589  1  0.69980700  0.22484400  0.94456300  1
  C  C590  1  0.30019300  0.22484400  0.05543700  1
  C  C591  1  0.30019300  0.77515600  0.94456300  1
  C  C592  1  0.55543700  0.69980700  0.27515600  1
  C  C593  1  0.44456300  0.69980700  0.72484400  1
  C  C594  1  0.55543700  0.30019300  0.72484400  1
  C  C595  1  0.44456300  0.30019300  0.27515600  1
  C  C596  1  0.55543700  0.77515600  0.80019300  1
  C  C597  1  0.44456300  0.22484400  0.80019300  1
  C  C598  1  0.55543700  0.22484400  0.19980700  1
  C  C599  1  0.44456300  0.77515600  0.19980700  1
  C  C600  1  0.77515600  0.69980700  0.94456300  1
  C  C601  1  0.22484400  0.69980700  0.05543700  1
  C  C602  1  0.22484400  0.30019300  0.94456300  1
  C  C603  1  0.77515600  0.30019300  0.05543700  1
  C  C604  1  0.69980700  0.55543700  0.72484400  1
  C  C605  1  0.69980700  0.44456300  0.27515600  1
  C  C606  1  0.30019300  0.55543700  0.27515600  1
  C  C607  1  0.30019300  0.44456300  0.72484400  1
  H  H608  1  0.26260000  0.04930000  0.19350000  1
  H  H609  1  0.73740000  0.95070000  0.19350000  1
  H  H610  1  0.73740000  0.04930000  0.80650000  1
  H  H611  1  0.26260000  0.95070000  0.80650000  1
  H  H612  1  0.19350000  0.26260000  0.04930000  1
  H  H613  1  0.19350000  0.73740000  0.95070000  1
  H  H614  1  0.80650000  0.73740000  0.04930000  1
  H  H615  1  0.80650000  0.26260000  0.95070000  1
  H  H616  1  0.04930000  0.19350000  0.26260000  1
  H  H617  1  0.95070000  0.19350000  0.73740000  1
  H  H618  1  0.04930000  0.80650000  0.73740000  1
  H  H619  1  0.95070000  0.80650000  0.26260000  1
  H  H620  1  0.04930000  0.26260000  0.80650000  1
  H  H621  1  0.95070000  0.73740000  0.80650000  1
  H  H622  1  0.04930000  0.73740000  0.19350000  1
  H  H623  1  0.95070000  0.26260000  0.19350000  1
  H  H624  1  0.26260000  0.19350000  0.95070000  1
  H  H625  1  0.73740000  0.19350000  0.04930000  1
  H  H626  1  0.73740000  0.80650000  0.95070000  1
  H  H627  1  0.26260000  0.80650000  0.04930000  1
  H  H628  1  0.19350000  0.04930000  0.73740000  1
  H  H629  1  0.19350000  0.95070000  0.26260000  1
  H  H630  1  0.80650000  0.04930000  0.26260000  1
  H  H631  1  0.80650000  0.95070000  0.73740000  1
  H  H632  1  0.26260000  0.54930000  0.69350000  1
  H  H633  1  0.73740000  0.45070000  0.69350000  1
  H  H634  1  0.73740000  0.54930000  0.30650000  1
  H  H635  1  0.26260000  0.45070000  0.30650000  1
  H  H636  1  0.19350000  0.76260000  0.54930000  1
  H  H637  1  0.19350000  0.23740000  0.45070000  1
  H  H638  1  0.80650000  0.23740000  0.54930000  1
  H  H639  1  0.80650000  0.76260000  0.45070000  1
  H  H640  1  0.04930000  0.69350000  0.76260000  1
  H  H641  1  0.95070000  0.69350000  0.23740000  1
  H  H642  1  0.04930000  0.30650000  0.23740000  1
  H  H643  1  0.95070000  0.30650000  0.76260000  1
  H  H644  1  0.04930000  0.76260000  0.30650000  1
  H  H645  1  0.95070000  0.23740000  0.30650000  1
  H  H646  1  0.04930000  0.23740000  0.69350000  1
  H  H647  1  0.95070000  0.76260000  0.69350000  1
  H  H648  1  0.26260000  0.69350000  0.45070000  1
  H  H649  1  0.73740000  0.69350000  0.54930000  1
  H  H650  1  0.73740000  0.30650000  0.45070000  1
  H  H651  1  0.26260000  0.30650000  0.54930000  1
  H  H652  1  0.19350000  0.54930000  0.23740000  1
  H  H653  1  0.19350000  0.45070000  0.76260000  1
  H  H654  1  0.80650000  0.54930000  0.76260000  1
  H  H655  1  0.80650000  0.45070000  0.23740000  1
  H  H656  1  0.76260000  0.04930000  0.69350000  1
  H  H657  1  0.23740000  0.95070000  0.69350000  1
  H  H658  1  0.23740000  0.04930000  0.30650000  1
  H  H659  1  0.76260000  0.95070000  0.30650000  1
  H  H660  1  0.69350000  0.26260000  0.54930000  1
  H  H661  1  0.69350000  0.73740000  0.45070000  1
  H  H662  1  0.30650000  0.73740000  0.54930000  1
  H  H663  1  0.30650000  0.26260000  0.45070000  1
  H  H664  1  0.54930000  0.19350000  0.76260000  1
  H  H665  1  0.45070000  0.19350000  0.23740000  1
  H  H666  1  0.54930000  0.80650000  0.23740000  1
  H  H667  1  0.45070000  0.80650000  0.76260000  1
  H  H668  1  0.54930000  0.26260000  0.30650000  1
  H  H669  1  0.45070000  0.73740000  0.30650000  1
  H  H670  1  0.54930000  0.73740000  0.69350000  1
  H  H671  1  0.45070000  0.26260000  0.69350000  1
  H  H672  1  0.76260000  0.19350000  0.45070000  1
  H  H673  1  0.23740000  0.19350000  0.54930000  1
  H  H674  1  0.23740000  0.80650000  0.45070000  1
  H  H675  1  0.76260000  0.80650000  0.54930000  1
  H  H676  1  0.69350000  0.04930000  0.23740000  1
  H  H677  1  0.69350000  0.95070000  0.76260000  1
  H  H678  1  0.30650000  0.04930000  0.76260000  1
  H  H679  1  0.30650000  0.95070000  0.23740000  1
  H  H680  1  0.76260000  0.54930000  0.19350000  1
  H  H681  1  0.23740000  0.45070000  0.19350000  1
  H  H682  1  0.23740000  0.54930000  0.80650000  1
  H  H683  1  0.76260000  0.45070000  0.80650000  1
  H  H684  1  0.69350000  0.76260000  0.04930000  1
  H  H685  1  0.69350000  0.23740000  0.95070000  1
  H  H686  1  0.30650000  0.23740000  0.04930000  1
  H  H687  1  0.30650000  0.76260000  0.95070000  1
  H  H688  1  0.54930000  0.69350000  0.26260000  1
  H  H689  1  0.45070000  0.69350000  0.73740000  1
  H  H690  1  0.54930000  0.30650000  0.73740000  1
  H  H691  1  0.45070000  0.30650000  0.26260000  1
  H  H692  1  0.54930000  0.76260000  0.80650000  1
  H  H693  1  0.45070000  0.23740000  0.80650000  1
  H  H694  1  0.54930000  0.23740000  0.19350000  1
  H  H695  1  0.45070000  0.76260000  0.19350000  1
  H  H696  1  0.76260000  0.69350000  0.95070000  1
  H  H697  1  0.23740000  0.69350000  0.04930000  1
  H  H698  1  0.23740000  0.30650000  0.95070000  1
  H  H699  1  0.76260000  0.30650000  0.04930000  1
  H  H700  1  0.69350000  0.54930000  0.73740000  1
  H  H701  1  0.69350000  0.45070000  0.26260000  1
  H  H702  1  0.30650000  0.54930000  0.26260000  1
  H  H703  1  0.30650000  0.45070000  0.73740000  1
  C  C704  1  0.28563800  0.07294700  0.18958500  1
  C  C705  1  0.71436200  0.92705300  0.18958500  1
  C  C706  1  0.71436200  0.07294700  0.81041500  1
  C  C707  1  0.28563800  0.92705300  0.81041500  1
  C  C708  1  0.18958500  0.28563800  0.07294700  1
  C  C709  1  0.18958500  0.71436200  0.92705300  1
  C  C710  1  0.81041500  0.71436200  0.07294700  1
  C  C711  1  0.81041500  0.28563800  0.92705300  1
  C  C712  1  0.07294700  0.18958500  0.28563800  1
  C  C713  1  0.92705300  0.18958500  0.71436200  1
  C  C714  1  0.07294700  0.81041500  0.71436200  1
  C  C715  1  0.92705300  0.81041500  0.28563800  1
  C  C716  1  0.07294700  0.28563800  0.81041500  1
  C  C717  1  0.92705300  0.71436200  0.81041500  1
  C  C718  1  0.07294700  0.71436200  0.18958500  1
  C  C719  1  0.92705300  0.28563800  0.18958500  1
  C  C720  1  0.28563800  0.18958500  0.92705300  1
  C  C721  1  0.71436200  0.18958500  0.07294700  1
  C  C722  1  0.71436200  0.81041500  0.92705300  1
  C  C723  1  0.28563800  0.81041500  0.07294700  1
  C  C724  1  0.18958500  0.07294700  0.71436200  1
  C  C725  1  0.18958500  0.92705300  0.28563800  1
  C  C726  1  0.81041500  0.07294700  0.28563800  1
  C  C727  1  0.81041500  0.92705300  0.71436200  1
  C  C728  1  0.28563800  0.57294700  0.68958500  1
  C  C729  1  0.71436200  0.42705300  0.68958500  1
  C  C730  1  0.71436200  0.57294700  0.31041500  1
  C  C731  1  0.28563800  0.42705300  0.31041500  1
  C  C732  1  0.18958500  0.78563800  0.57294700  1
  C  C733  1  0.18958500  0.21436200  0.42705300  1
  C  C734  1  0.81041500  0.21436200  0.57294700  1
  C  C735  1  0.81041500  0.78563800  0.42705300  1
  C  C736  1  0.07294700  0.68958500  0.78563800  1
  C  C737  1  0.92705300  0.68958500  0.21436200  1
  C  C738  1  0.07294700  0.31041500  0.21436200  1
  C  C739  1  0.92705300  0.31041500  0.78563800  1
  C  C740  1  0.07294700  0.78563800  0.31041500  1
  C  C741  1  0.92705300  0.21436200  0.31041500  1
  C  C742  1  0.07294700  0.21436200  0.68958500  1
  C  C743  1  0.92705300  0.78563800  0.68958500  1
  C  C744  1  0.28563800  0.68958500  0.42705300  1
  C  C745  1  0.71436200  0.68958500  0.57294700  1
  C  C746  1  0.71436200  0.31041500  0.42705300  1
  C  C747  1  0.28563800  0.31041500  0.57294700  1
  C  C748  1  0.18958500  0.57294700  0.21436200  1
  C  C749  1  0.18958500  0.42705300  0.78563800  1
  C  C750  1  0.81041500  0.57294700  0.78563800  1
  C  C751  1  0.81041500  0.42705300  0.21436200  1
  C  C752  1  0.78563800  0.07294700  0.68958500  1
  C  C753  1  0.21436200  0.92705300  0.68958500  1
  C  C754  1  0.21436200  0.07294700  0.31041500  1
  C  C755  1  0.78563800  0.92705300  0.31041500  1
  C  C756  1  0.68958500  0.28563800  0.57294700  1
  C  C757  1  0.68958500  0.71436200  0.42705300  1
  C  C758  1  0.31041500  0.71436200  0.57294700  1
  C  C759  1  0.31041500  0.28563800  0.42705300  1
  C  C760  1  0.57294700  0.18958500  0.78563800  1
  C  C761  1  0.42705300  0.18958500  0.21436200  1
  C  C762  1  0.57294700  0.81041500  0.21436200  1
  C  C763  1  0.42705300  0.81041500  0.78563800  1
  C  C764  1  0.57294700  0.28563800  0.31041500  1
  C  C765  1  0.42705300  0.71436200  0.31041500  1
  C  C766  1  0.57294700  0.71436200  0.68958500  1
  C  C767  1  0.42705300  0.28563800  0.68958500  1
  C  C768  1  0.78563800  0.18958500  0.42705300  1
  C  C769  1  0.21436200  0.18958500  0.57294700  1
  C  C770  1  0.21436200  0.81041500  0.42705300  1
  C  C771  1  0.78563800  0.81041500  0.57294700  1
  C  C772  1  0.68958500  0.07294700  0.21436200  1
  C  C773  1  0.68958500  0.92705300  0.78563800  1
  C  C774  1  0.31041500  0.07294700  0.78563800  1
  C  C775  1  0.31041500  0.92705300  0.21436200  1
  C  C776  1  0.78563800  0.57294700  0.18958500  1
  C  C777  1  0.21436200  0.42705300  0.18958500  1
  C  C778  1  0.21436200  0.57294700  0.81041500  1
  C  C779  1  0.78563800  0.42705300  0.81041500  1
  C  C780  1  0.68958500  0.78563800  0.07294700  1
  C  C781  1  0.68958500  0.21436200  0.92705300  1
  C  C782  1  0.31041500  0.21436200  0.07294700  1
  C  C783  1  0.31041500  0.78563800  0.92705300  1
  C  C784  1  0.57294700  0.68958500  0.28563800  1
  C  C785  1  0.42705300  0.68958500  0.71436200  1
  C  C786  1  0.57294700  0.31041500  0.71436200  1
  C  C787  1  0.42705300  0.31041500  0.28563800  1
  C  C788  1  0.57294700  0.78563800  0.81041500  1
  C  C789  1  0.42705300  0.21436200  0.81041500  1
  C  C790  1  0.57294700  0.21436200  0.18958500  1
  C  C791  1  0.42705300  0.78563800  0.18958500  1
  C  C792  1  0.78563800  0.68958500  0.92705300  1
  C  C793  1  0.21436200  0.68958500  0.07294700  1
  C  C794  1  0.21436200  0.31041500  0.92705300  1
  C  C795  1  0.78563800  0.31041500  0.07294700  1
  C  C796  1  0.68958500  0.57294700  0.71436200  1
  C  C797  1  0.68958500  0.42705300  0.28563800  1
  C  C798  1  0.31041500  0.57294700  0.28563800  1
  C  C799  1  0.31041500  0.42705300  0.71436200  1
  H  H800  1  0.28010000  0.07860000  0.17650000  1
  H  H801  1  0.71990000  0.92140000  0.17650000  1
  H  H802  1  0.71990000  0.07860000  0.82350000  1
  H  H803  1  0.28010000  0.92140000  0.82350000  1
  H  H804  1  0.17650000  0.28010000  0.07860000  1
  H  H805  1  0.17650000  0.71990000  0.92140000  1
  H  H806  1  0.82350000  0.71990000  0.07860000  1
  H  H807  1  0.82350000  0.28010000  0.92140000  1
  H  H808  1  0.07860000  0.17650000  0.28010000  1
  H  H809  1  0.92140000  0.17650000  0.71990000  1
  H  H810  1  0.07860000  0.82350000  0.71990000  1
  H  H811  1  0.92140000  0.82350000  0.28010000  1
  H  H812  1  0.07860000  0.28010000  0.82350000  1
  H  H813  1  0.92140000  0.71990000  0.82350000  1
  H  H814  1  0.07860000  0.71990000  0.17650000  1
  H  H815  1  0.92140000  0.28010000  0.17650000  1
  H  H816  1  0.28010000  0.17650000  0.92140000  1
  H  H817  1  0.71990000  0.17650000  0.07860000  1
  H  H818  1  0.71990000  0.82350000  0.92140000  1
  H  H819  1  0.28010000  0.82350000  0.07860000  1
  H  H820  1  0.17650000  0.07860000  0.71990000  1
  H  H821  1  0.17650000  0.92140000  0.28010000  1
  H  H822  1  0.82350000  0.07860000  0.28010000  1
  H  H823  1  0.82350000  0.92140000  0.71990000  1
  H  H824  1  0.28010000  0.57860000  0.67650000  1
  H  H825  1  0.71990000  0.42140000  0.67650000  1
  H  H826  1  0.71990000  0.57860000  0.32350000  1
  H  H827  1  0.28010000  0.42140000  0.32350000  1
  H  H828  1  0.17650000  0.78010000  0.57860000  1
  H  H829  1  0.17650000  0.21990000  0.42140000  1
  H  H830  1  0.82350000  0.21990000  0.57860000  1
  H  H831  1  0.82350000  0.78010000  0.42140000  1
  H  H832  1  0.07860000  0.67650000  0.78010000  1
  H  H833  1  0.92140000  0.67650000  0.21990000  1
  H  H834  1  0.07860000  0.32350000  0.21990000  1
  H  H835  1  0.92140000  0.32350000  0.78010000  1
  H  H836  1  0.07860000  0.78010000  0.32350000  1
  H  H837  1  0.92140000  0.21990000  0.32350000  1
  H  H838  1  0.07860000  0.21990000  0.67650000  1
  H  H839  1  0.92140000  0.78010000  0.67650000  1
  H  H840  1  0.28010000  0.67650000  0.42140000  1
  H  H841  1  0.71990000  0.67650000  0.57860000  1
  H  H842  1  0.71990000  0.32350000  0.42140000  1
  H  H843  1  0.28010000  0.32350000  0.57860000  1
  H  H844  1  0.17650000  0.57860000  0.21990000  1
  H  H845  1  0.17650000  0.42140000  0.78010000  1
  H  H846  1  0.82350000  0.57860000  0.78010000  1
  H  H847  1  0.82350000  0.42140000  0.21990000  1
  H  H848  1  0.78010000  0.07860000  0.67650000  1
  H  H849  1  0.21990000  0.92140000  0.67650000  1
  H  H850  1  0.21990000  0.07860000  0.32350000  1
  H  H851  1  0.78010000  0.92140000  0.32350000  1
  H  H852  1  0.67650000  0.28010000  0.57860000  1
  H  H853  1  0.67650000  0.71990000  0.42140000  1
  H  H854  1  0.32350000  0.71990000  0.57860000  1
  H  H855  1  0.32350000  0.28010000  0.42140000  1
  H  H856  1  0.57860000  0.17650000  0.78010000  1
  H  H857  1  0.42140000  0.17650000  0.21990000  1
  H  H858  1  0.57860000  0.82350000  0.21990000  1
  H  H859  1  0.42140000  0.82350000  0.78010000  1
  H  H860  1  0.57860000  0.28010000  0.32350000  1
  H  H861  1  0.42140000  0.71990000  0.32350000  1
  H  H862  1  0.57860000  0.71990000  0.67650000  1
  H  H863  1  0.42140000  0.28010000  0.67650000  1
  H  H864  1  0.78010000  0.17650000  0.42140000  1
  H  H865  1  0.21990000  0.17650000  0.57860000  1
  H  H866  1  0.21990000  0.82350000  0.42140000  1
  H  H867  1  0.78010000  0.82350000  0.57860000  1
  H  H868  1  0.67650000  0.07860000  0.21990000  1
  H  H869  1  0.67650000  0.92140000  0.78010000  1
  H  H870  1  0.32350000  0.07860000  0.78010000  1
  H  H871  1  0.32350000  0.92140000  0.21990000  1
  H  H872  1  0.78010000  0.57860000  0.17650000  1
  H  H873  1  0.21990000  0.42140000  0.17650000  1
  H  H874  1  0.21990000  0.57860000  0.82350000  1
  H  H875  1  0.78010000  0.42140000  0.82350000  1
  H  H876  1  0.67650000  0.78010000  0.07860000  1
  H  H877  1  0.67650000  0.21990000  0.92140000  1
  H  H878  1  0.32350000  0.21990000  0.07860000  1
  H  H879  1  0.32350000  0.78010000  0.92140000  1
  H  H880  1  0.57860000  0.67650000  0.28010000  1
  H  H881  1  0.42140000  0.67650000  0.71990000  1
  H  H882  1  0.57860000  0.32350000  0.71990000  1
  H  H883  1  0.42140000  0.32350000  0.28010000  1
  H  H884  1  0.57860000  0.78010000  0.82350000  1
  H  H885  1  0.42140000  0.21990000  0.82350000  1
  H  H886  1  0.57860000  0.21990000  0.17650000  1
  H  H887  1  0.42140000  0.78010000  0.17650000  1
  H  H888  1  0.78010000  0.67650000  0.92140000  1
  H  H889  1  0.21990000  0.67650000  0.07860000  1
  H  H890  1  0.21990000  0.32350000  0.92140000  1
  H  H891  1  0.78010000  0.32350000  0.07860000  1
  H  H892  1  0.67650000  0.57860000  0.71990000  1
  H  H893  1  0.67650000  0.42140000  0.28010000  1
  H  H894  1  0.32350000  0.57860000  0.28010000  1
  H  H895  1  0.32350000  0.42140000  0.71990000  1
  C  C896  1  0.30436800  0.08205600  0.19892800  1
  C  C897  1  0.69563200  0.91794400  0.19892800  1
  C  C898  1  0.69563200  0.08205600  0.80107200  1
  C  C899  1  0.30436800  0.91794400  0.80107200  1
  C  C900  1  0.19892800  0.30436800  0.08205600  1
  C  C901  1  0.19892800  0.69563200  0.91794400  1
  C  C902  1  0.80107200  0.69563200  0.08205600  1
  C  C903  1  0.80107200  0.30436800  0.91794400  1
  C  C904  1  0.08205600  0.19892800  0.30436800  1
  C  C905  1  0.91794400  0.19892800  0.69563200  1
  C  C906  1  0.08205600  0.80107200  0.69563200  1
  C  C907  1  0.91794400  0.80107200  0.30436800  1
  C  C908  1  0.08205600  0.30436800  0.80107200  1
  C  C909  1  0.91794400  0.69563200  0.80107200  1
  C  C910  1  0.08205600  0.69563200  0.19892800  1
  C  C911  1  0.91794400  0.30436800  0.19892800  1
  C  C912  1  0.30436800  0.19892800  0.91794400  1
  C  C913  1  0.69563200  0.19892800  0.08205600  1
  C  C914  1  0.69563200  0.80107200  0.91794400  1
  C  C915  1  0.30436800  0.80107200  0.08205600  1
  C  C916  1  0.19892800  0.08205600  0.69563200  1
  C  C917  1  0.19892800  0.91794400  0.30436800  1
  C  C918  1  0.80107200  0.08205600  0.30436800  1
  C  C919  1  0.80107200  0.91794400  0.69563200  1
  C  C920  1  0.30436800  0.58205600  0.69892800  1
  C  C921  1  0.69563200  0.41794400  0.69892800  1
  C  C922  1  0.69563200  0.58205600  0.30107200  1
  C  C923  1  0.30436800  0.41794400  0.30107200  1
  C  C924  1  0.19892800  0.80436800  0.58205600  1
  C  C925  1  0.19892800  0.19563200  0.41794400  1
  C  C926  1  0.80107200  0.19563200  0.58205600  1
  C  C927  1  0.80107200  0.80436800  0.41794400  1
  C  C928  1  0.08205600  0.69892800  0.80436800  1
  C  C929  1  0.91794400  0.69892800  0.19563200  1
  C  C930  1  0.08205600  0.30107200  0.19563200  1
  C  C931  1  0.91794400  0.30107200  0.80436800  1
  C  C932  1  0.08205600  0.80436800  0.30107200  1
  C  C933  1  0.91794400  0.19563200  0.30107200  1
  C  C934  1  0.08205600  0.19563200  0.69892800  1
  C  C935  1  0.91794400  0.80436800  0.69892800  1
  C  C936  1  0.30436800  0.69892800  0.41794400  1
  C  C937  1  0.69563200  0.69892800  0.58205600  1
  C  C938  1  0.69563200  0.30107200  0.41794400  1
  C  C939  1  0.30436800  0.30107200  0.58205600  1
  C  C940  1  0.19892800  0.58205600  0.19563200  1
  C  C941  1  0.19892800  0.41794400  0.80436800  1
  C  C942  1  0.80107200  0.58205600  0.80436800  1
  C  C943  1  0.80107200  0.41794400  0.19563200  1
  C  C944  1  0.80436800  0.08205600  0.69892800  1
  C  C945  1  0.19563200  0.91794400  0.69892800  1
  C  C946  1  0.19563200  0.08205600  0.30107200  1
  C  C947  1  0.80436800  0.91794400  0.30107200  1
  C  C948  1  0.69892800  0.30436800  0.58205600  1
  C  C949  1  0.69892800  0.69563200  0.41794400  1
  C  C950  1  0.30107200  0.69563200  0.58205600  1
  C  C951  1  0.30107200  0.30436800  0.41794400  1
  C  C952  1  0.58205600  0.19892800  0.80436800  1
  C  C953  1  0.41794400  0.19892800  0.19563200  1
  C  C954  1  0.58205600  0.80107200  0.19563200  1
  C  C955  1  0.41794400  0.80107200  0.80436800  1
  C  C956  1  0.58205600  0.30436800  0.30107200  1
  C  C957  1  0.41794400  0.69563200  0.30107200  1
  C  C958  1  0.58205600  0.69563200  0.69892800  1
  C  C959  1  0.41794400  0.30436800  0.69892800  1
  C  C960  1  0.80436800  0.19892800  0.41794400  1
  C  C961  1  0.19563200  0.19892800  0.58205600  1
  C  C962  1  0.19563200  0.80107200  0.41794400  1
  C  C963  1  0.80436800  0.80107200  0.58205600  1
  C  C964  1  0.69892800  0.08205600  0.19563200  1
  C  C965  1  0.69892800  0.91794400  0.80436800  1
  C  C966  1  0.30107200  0.08205600  0.80436800  1
  C  C967  1  0.30107200  0.91794400  0.19563200  1
  C  C968  1  0.80436800  0.58205600  0.19892800  1
  C  C969  1  0.19563200  0.41794400  0.19892800  1
  C  C970  1  0.19563200  0.58205600  0.80107200  1
  C  C971  1  0.80436800  0.41794400  0.80107200  1
  C  C972  1  0.69892800  0.80436800  0.08205600  1
  C  C973  1  0.69892800  0.19563200  0.91794400  1
  C  C974  1  0.30107200  0.19563200  0.08205600  1
  C  C975  1  0.30107200  0.80436800  0.91794400  1
  C  C976  1  0.58205600  0.69892800  0.30436800  1
  C  C977  1  0.41794400  0.69892800  0.69563200  1
  C  C978  1  0.58205600  0.30107200  0.69563200  1
  C  C979  1  0.41794400  0.30107200  0.30436800  1
  C  C980  1  0.58205600  0.80436800  0.80107200  1
  C  C981  1  0.41794400  0.19563200  0.80107200  1
  C  C982  1  0.58205600  0.19563200  0.19892800  1
  C  C983  1  0.41794400  0.80436800  0.19892800  1
  C  C984  1  0.80436800  0.69892800  0.91794400  1
  C  C985  1  0.19563200  0.69892800  0.08205600  1
  C  C986  1  0.19563200  0.30107200  0.91794400  1
  C  C987  1  0.80436800  0.30107200  0.08205600  1
  C  C988  1  0.69892800  0.58205600  0.69563200  1
  C  C989  1  0.69892800  0.41794400  0.30436800  1
  C  C990  1  0.30107200  0.58205600  0.30436800  1
  C  C991  1  0.30107200  0.41794400  0.69563200  1
  C  C992  1  0.31260500  0.07365800  0.21847800  1
  C  C993  1  0.68739500  0.92634200  0.21847800  1
  C  C994  1  0.68739500  0.07365800  0.78152200  1
  C  C995  1  0.31260500  0.92634200  0.78152200  1
  C  C996  1  0.21847800  0.31260500  0.07365800  1
  C  C997  1  0.21847800  0.68739500  0.92634200  1
  C  C998  1  0.78152200  0.68739500  0.07365800  1
  C  C999  1  0.78152200  0.31260500  0.92634200  1
  C  C1000  1  0.07365800  0.21847800  0.31260500  1
  C  C1001  1  0.92634200  0.21847800  0.68739500  1
  C  C1002  1  0.07365800  0.78152200  0.68739500  1
  C  C1003  1  0.92634200  0.78152200  0.31260500  1
  C  C1004  1  0.07365800  0.31260500  0.78152200  1
  C  C1005  1  0.92634200  0.68739500  0.78152200  1
  C  C1006  1  0.07365800  0.68739500  0.21847800  1
  C  C1007  1  0.92634200  0.31260500  0.21847800  1
  C  C1008  1  0.31260500  0.21847800  0.92634200  1
  C  C1009  1  0.68739500  0.21847800  0.07365800  1
  C  C1010  1  0.68739500  0.78152200  0.92634200  1
  C  C1011  1  0.31260500  0.78152200  0.07365800  1
  C  C1012  1  0.21847800  0.07365800  0.68739500  1
  C  C1013  1  0.21847800  0.92634200  0.31260500  1
  C  C1014  1  0.78152200  0.07365800  0.31260500  1
  C  C1015  1  0.78152200  0.92634200  0.68739500  1
  C  C1016  1  0.31260500  0.57365800  0.71847800  1
  C  C1017  1  0.68739500  0.42634200  0.71847800  1
  C  C1018  1  0.68739500  0.57365800  0.28152200  1
  C  C1019  1  0.31260500  0.42634200  0.28152200  1
  C  C1020  1  0.21847800  0.81260500  0.57365800  1
  C  C1021  1  0.21847800  0.18739500  0.42634200  1
  C  C1022  1  0.78152200  0.18739500  0.57365800  1
  C  C1023  1  0.78152200  0.81260500  0.42634200  1
  C  C1024  1  0.07365800  0.71847800  0.81260500  1
  C  C1025  1  0.92634200  0.71847800  0.18739500  1
  C  C1026  1  0.07365800  0.28152200  0.18739500  1
  C  C1027  1  0.92634200  0.28152200  0.81260500  1
  C  C1028  1  0.07365800  0.81260500  0.28152200  1
  C  C1029  1  0.92634200  0.18739500  0.28152200  1
  C  C1030  1  0.07365800  0.18739500  0.71847800  1
  C  C1031  1  0.92634200  0.81260500  0.71847800  1
  C  C1032  1  0.31260500  0.71847800  0.42634200  1
  C  C1033  1  0.68739500  0.71847800  0.57365800  1
  C  C1034  1  0.68739500  0.28152200  0.42634200  1
  C  C1035  1  0.31260500  0.28152200  0.57365800  1
  C  C1036  1  0.21847800  0.57365800  0.18739500  1
  C  C1037  1  0.21847800  0.42634200  0.81260500  1
  C  C1038  1  0.78152200  0.57365800  0.81260500  1
  C  C1039  1  0.78152200  0.42634200  0.18739500  1
  C  C1040  1  0.81260500  0.07365800  0.71847800  1
  C  C1041  1  0.18739500  0.92634200  0.71847800  1
  C  C1042  1  0.18739500  0.07365800  0.28152200  1
  C  C1043  1  0.81260500  0.92634200  0.28152200  1
  C  C1044  1  0.71847800  0.31260500  0.57365800  1
  C  C1045  1  0.71847800  0.68739500  0.42634200  1
  C  C1046  1  0.28152200  0.68739500  0.57365800  1
  C  C1047  1  0.28152200  0.31260500  0.42634200  1
  C  C1048  1  0.57365800  0.21847800  0.81260500  1
  C  C1049  1  0.42634200  0.21847800  0.18739500  1
  C  C1050  1  0.57365800  0.78152200  0.18739500  1
  C  C1051  1  0.42634200  0.78152200  0.81260500  1
  C  C1052  1  0.57365800  0.31260500  0.28152200  1
  C  C1053  1  0.42634200  0.68739500  0.28152200  1
  C  C1054  1  0.57365800  0.68739500  0.71847800  1
  C  C1055  1  0.42634200  0.31260500  0.71847800  1
  C  C1056  1  0.81260500  0.21847800  0.42634200  1
  C  C1057  1  0.18739500  0.21847800  0.57365800  1
  C  C1058  1  0.18739500  0.78152200  0.42634200  1
  C  C1059  1  0.81260500  0.78152200  0.57365800  1
  C  C1060  1  0.71847800  0.07365800  0.18739500  1
  C  C1061  1  0.71847800  0.92634200  0.81260500  1
  C  C1062  1  0.28152200  0.07365800  0.81260500  1
  C  C1063  1  0.28152200  0.92634200  0.18739500  1
  C  C1064  1  0.81260500  0.57365800  0.21847800  1
  C  C1065  1  0.18739500  0.42634200  0.21847800  1
  C  C1066  1  0.18739500  0.57365800  0.78152200  1
  C  C1067  1  0.81260500  0.42634200  0.78152200  1
  C  C1068  1  0.71847800  0.81260500  0.07365800  1
  C  C1069  1  0.71847800  0.18739500  0.92634200  1
  C  C1070  1  0.28152200  0.18739500  0.07365800  1
  C  C1071  1  0.28152200  0.81260500  0.92634200  1
  C  C1072  1  0.57365800  0.71847800  0.31260500  1
  C  C1073  1  0.42634200  0.71847800  0.68739500  1
  C  C1074  1  0.57365800  0.28152200  0.68739500  1
  C  C1075  1  0.42634200  0.28152200  0.31260500  1
  C  C1076  1  0.57365800  0.81260500  0.78152200  1
  C  C1077  1  0.42634200  0.18739500  0.78152200  1
  C  C1078  1  0.57365800  0.18739500  0.21847800  1
  C  C1079  1  0.42634200  0.81260500  0.21847800  1
  C  C1080  1  0.81260500  0.71847800  0.92634200  1
  C  C1081  1  0.18739500  0.71847800  0.07365800  1
  C  C1082  1  0.18739500  0.28152200  0.92634200  1
  C  C1083  1  0.81260500  0.28152200  0.07365800  1
  C  C1084  1  0.71847800  0.57365800  0.68739500  1
  C  C1085  1  0.71847800  0.42634200  0.31260500  1
  C  C1086  1  0.28152200  0.57365800  0.31260500  1
  C  C1087  1  0.28152200  0.42634200  0.68739500  1
  H  H1088  1  0.32510000  0.07970000  0.22470000  1
  H  H1089  1  0.67490000  0.92030000  0.22470000  1
  H  H1090  1  0.67490000  0.07970000  0.77530000  1
  H  H1091  1  0.32510000  0.92030000  0.77530000  1
  H  H1092  1  0.22470000  0.32510000  0.07970000  1
  H  H1093  1  0.22470000  0.67490000  0.92030000  1
  H  H1094  1  0.77530000  0.67490000  0.07970000  1
  H  H1095  1  0.77530000  0.32510000  0.92030000  1
  H  H1096  1  0.07970000  0.22470000  0.32510000  1
  H  H1097  1  0.92030000  0.22470000  0.67490000  1
  H  H1098  1  0.07970000  0.77530000  0.67490000  1
  H  H1099  1  0.92030000  0.77530000  0.32510000  1
  H  H1100  1  0.07970000  0.32510000  0.77530000  1
  H  H1101  1  0.92030000  0.67490000  0.77530000  1
  H  H1102  1  0.07970000  0.67490000  0.22470000  1
  H  H1103  1  0.92030000  0.32510000  0.22470000  1
  H  H1104  1  0.32510000  0.22470000  0.92030000  1
  H  H1105  1  0.67490000  0.22470000  0.07970000  1
  H  H1106  1  0.67490000  0.77530000  0.92030000  1
  H  H1107  1  0.32510000  0.77530000  0.07970000  1
  H  H1108  1  0.22470000  0.07970000  0.67490000  1
  H  H1109  1  0.22470000  0.92030000  0.32510000  1
  H  H1110  1  0.77530000  0.07970000  0.32510000  1
  H  H1111  1  0.77530000  0.92030000  0.67490000  1
  H  H1112  1  0.32510000  0.57970000  0.72470000  1
  H  H1113  1  0.67490000  0.42030000  0.72470000  1
  H  H1114  1  0.67490000  0.57970000  0.27530000  1
  H  H1115  1  0.32510000  0.42030000  0.27530000  1
  H  H1116  1  0.22470000  0.82510000  0.57970000  1
  H  H1117  1  0.22470000  0.17490000  0.42030000  1
  H  H1118  1  0.77530000  0.17490000  0.57970000  1
  H  H1119  1  0.77530000  0.82510000  0.42030000  1
  H  H1120  1  0.07970000  0.72470000  0.82510000  1
  H  H1121  1  0.92030000  0.72470000  0.17490000  1
  H  H1122  1  0.07970000  0.27530000  0.17490000  1
  H  H1123  1  0.92030000  0.27530000  0.82510000  1
  H  H1124  1  0.07970000  0.82510000  0.27530000  1
  H  H1125  1  0.92030000  0.17490000  0.27530000  1
  H  H1126  1  0.07970000  0.17490000  0.72470000  1
  H  H1127  1  0.92030000  0.82510000  0.72470000  1
  H  H1128  1  0.32510000  0.72470000  0.42030000  1
  H  H1129  1  0.67490000  0.72470000  0.57970000  1
  H  H1130  1  0.67490000  0.27530000  0.42030000  1
  H  H1131  1  0.32510000  0.27530000  0.57970000  1
  H  H1132  1  0.22470000  0.57970000  0.17490000  1
  H  H1133  1  0.22470000  0.42030000  0.82510000  1
  H  H1134  1  0.77530000  0.57970000  0.82510000  1
  H  H1135  1  0.77530000  0.42030000  0.17490000  1
  H  H1136  1  0.82510000  0.07970000  0.72470000  1
  H  H1137  1  0.17490000  0.92030000  0.72470000  1
  H  H1138  1  0.17490000  0.07970000  0.27530000  1
  H  H1139  1  0.82510000  0.92030000  0.27530000  1
  H  H1140  1  0.72470000  0.32510000  0.57970000  1
  H  H1141  1  0.72470000  0.67490000  0.42030000  1
  H  H1142  1  0.27530000  0.67490000  0.57970000  1
  H  H1143  1  0.27530000  0.32510000  0.42030000  1
  H  H1144  1  0.57970000  0.22470000  0.82510000  1
  H  H1145  1  0.42030000  0.22470000  0.17490000  1
  H  H1146  1  0.57970000  0.77530000  0.17490000  1
  H  H1147  1  0.42030000  0.77530000  0.82510000  1
  H  H1148  1  0.57970000  0.32510000  0.27530000  1
  H  H1149  1  0.42030000  0.67490000  0.27530000  1
  H  H1150  1  0.57970000  0.67490000  0.72470000  1
  H  H1151  1  0.42030000  0.32510000  0.72470000  1
  H  H1152  1  0.82510000  0.22470000  0.42030000  1
  H  H1153  1  0.17490000  0.22470000  0.57970000  1
  H  H1154  1  0.17490000  0.77530000  0.42030000  1
  H  H1155  1  0.82510000  0.77530000  0.57970000  1
  H  H1156  1  0.72470000  0.07970000  0.17490000  1
  H  H1157  1  0.72470000  0.92030000  0.82510000  1
  H  H1158  1  0.27530000  0.07970000  0.82510000  1
  H  H1159  1  0.27530000  0.92030000  0.17490000  1
  H  H1160  1  0.82510000  0.57970000  0.22470000  1
  H  H1161  1  0.17490000  0.42030000  0.22470000  1
  H  H1162  1  0.17490000  0.57970000  0.77530000  1
  H  H1163  1  0.82510000  0.42030000  0.77530000  1
  H  H1164  1  0.72470000  0.82510000  0.07970000  1
  H  H1165  1  0.72470000  0.17490000  0.92030000  1
  H  H1166  1  0.27530000  0.17490000  0.07970000  1
  H  H1167  1  0.27530000  0.82510000  0.92030000  1
  H  H1168  1  0.57970000  0.72470000  0.32510000  1
  H  H1169  1  0.42030000  0.72470000  0.67490000  1
  H  H1170  1  0.57970000  0.27530000  0.67490000  1
  H  H1171  1  0.42030000  0.27530000  0.32510000  1
  H  H1172  1  0.57970000  0.82510000  0.77530000  1
  H  H1173  1  0.42030000  0.17490000  0.77530000  1
  H  H1174  1  0.57970000  0.17490000  0.22470000  1
  H  H1175  1  0.42030000  0.82510000  0.22470000  1
  H  H1176  1  0.82510000  0.72470000  0.92030000  1
  H  H1177  1  0.17490000  0.72470000  0.07970000  1
  H  H1178  1  0.17490000  0.27530000  0.92030000  1
  H  H1179  1  0.82510000  0.27530000  0.07970000  1
  H  H1180  1  0.72470000  0.57970000  0.67490000  1
  H  H1181  1  0.72470000  0.42030000  0.32510000  1
  H  H1182  1  0.27530000  0.57970000  0.32510000  1
  H  H1183  1  0.27530000  0.42030000  0.67490000  1
  C  C1184  1  0.30212800  0.05614700  0.22869600  1
  C  C1185  1  0.69787200  0.94385300  0.22869600  1
  C  C1186  1  0.69787200  0.05614700  0.77130400  1
  C  C1187  1  0.30212800  0.94385300  0.77130400  1
  C  C1188  1  0.22869600  0.30212800  0.05614700  1
  C  C1189  1  0.22869600  0.69787200  0.94385300  1
  C  C1190  1  0.77130400  0.69787200  0.05614700  1
  C  C1191  1  0.77130400  0.30212800  0.94385300  1
  C  C1192  1  0.05614700  0.22869600  0.30212800  1
  C  C1193  1  0.94385300  0.22869600  0.69787200  1
  C  C1194  1  0.05614700  0.77130400  0.69787200  1
  C  C1195  1  0.94385300  0.77130400  0.30212800  1
  C  C1196  1  0.05614700  0.30212800  0.77130400  1
  C  C1197  1  0.94385300  0.69787200  0.77130400  1
  C  C1198  1  0.05614700  0.69787200  0.22869600  1
  C  C1199  1  0.94385300  0.30212800  0.22869600  1
  C  C1200  1  0.30212800  0.22869600  0.94385300  1
  C  C1201  1  0.69787200  0.22869600  0.05614700  1
  C  C1202  1  0.69787200  0.77130400  0.94385300  1
  C  C1203  1  0.30212800  0.77130400  0.05614700  1
  C  C1204  1  0.22869600  0.05614700  0.69787200  1
  C  C1205  1  0.22869600  0.94385300  0.30212800  1
  C  C1206  1  0.77130400  0.05614700  0.30212800  1
  C  C1207  1  0.77130400  0.94385300  0.69787200  1
  C  C1208  1  0.30212800  0.55614700  0.72869600  1
  C  C1209  1  0.69787200  0.44385300  0.72869600  1
  C  C1210  1  0.69787200  0.55614700  0.27130400  1
  C  C1211  1  0.30212800  0.44385300  0.27130400  1
  C  C1212  1  0.22869600  0.80212800  0.55614700  1
  C  C1213  1  0.22869600  0.19787200  0.44385300  1
  C  C1214  1  0.77130400  0.19787200  0.55614700  1
  C  C1215  1  0.77130400  0.80212800  0.44385300  1
  C  C1216  1  0.05614700  0.72869600  0.80212800  1
  C  C1217  1  0.94385300  0.72869600  0.19787200  1
  C  C1218  1  0.05614700  0.27130400  0.19787200  1
  C  C1219  1  0.94385300  0.27130400  0.80212800  1
  C  C1220  1  0.05614700  0.80212800  0.27130400  1
  C  C1221  1  0.94385300  0.19787200  0.27130400  1
  C  C1222  1  0.05614700  0.19787200  0.72869600  1
  C  C1223  1  0.94385300  0.80212800  0.72869600  1
  C  C1224  1  0.30212800  0.72869600  0.44385300  1
  C  C1225  1  0.69787200  0.72869600  0.55614700  1
  C  C1226  1  0.69787200  0.27130400  0.44385300  1
  C  C1227  1  0.30212800  0.27130400  0.55614700  1
  C  C1228  1  0.22869600  0.55614700  0.19787200  1
  C  C1229  1  0.22869600  0.44385300  0.80212800  1
  C  C1230  1  0.77130400  0.55614700  0.80212800  1
  C  C1231  1  0.77130400  0.44385300  0.19787200  1
  C  C1232  1  0.80212800  0.05614700  0.72869600  1
  C  C1233  1  0.19787200  0.94385300  0.72869600  1
  C  C1234  1  0.19787200  0.05614700  0.27130400  1
  C  C1235  1  0.80212800  0.94385300  0.27130400  1
  C  C1236  1  0.72869600  0.30212800  0.55614700  1
  C  C1237  1  0.72869600  0.69787200  0.44385300  1
  C  C1238  1  0.27130400  0.69787200  0.55614700  1
  C  C1239  1  0.27130400  0.30212800  0.44385300  1
  C  C1240  1  0.55614700  0.22869600  0.80212800  1
  C  C1241  1  0.44385300  0.22869600  0.19787200  1
  C  C1242  1  0.55614700  0.77130400  0.19787200  1
  C  C1243  1  0.44385300  0.77130400  0.80212800  1
  C  C1244  1  0.55614700  0.30212800  0.27130400  1
  C  C1245  1  0.44385300  0.69787200  0.27130400  1
  C  C1246  1  0.55614700  0.69787200  0.72869600  1
  C  C1247  1  0.44385300  0.30212800  0.72869600  1
  C  C1248  1  0.80212800  0.22869600  0.44385300  1
  C  C1249  1  0.19787200  0.22869600  0.55614700  1
  C  C1250  1  0.19787200  0.77130400  0.44385300  1
  C  C1251  1  0.80212800  0.77130400  0.55614700  1
  C  C1252  1  0.72869600  0.05614700  0.19787200  1
  C  C1253  1  0.72869600  0.94385300  0.80212800  1
  C  C1254  1  0.27130400  0.05614700  0.80212800  1
  C  C1255  1  0.27130400  0.94385300  0.19787200  1
  C  C1256  1  0.80212800  0.55614700  0.22869600  1
  C  C1257  1  0.19787200  0.44385300  0.22869600  1
  C  C1258  1  0.19787200  0.55614700  0.77130400  1
  C  C1259  1  0.80212800  0.44385300  0.77130400  1
  C  C1260  1  0.72869600  0.80212800  0.05614700  1
  C  C1261  1  0.72869600  0.19787200  0.94385300  1
  C  C1262  1  0.27130400  0.19787200  0.05614700  1
  C  C1263  1  0.27130400  0.80212800  0.94385300  1
  C  C1264  1  0.55614700  0.72869600  0.30212800  1
  C  C1265  1  0.44385300  0.72869600  0.69787200  1
  C  C1266  1  0.55614700  0.27130400  0.69787200  1
  C  C1267  1  0.44385300  0.27130400  0.30212800  1
  C  C1268  1  0.55614700  0.80212800  0.77130400  1
  C  C1269  1  0.44385300  0.19787200  0.77130400  1
  C  C1270  1  0.55614700  0.19787200  0.22869600  1
  C  C1271  1  0.44385300  0.80212800  0.22869600  1
  C  C1272  1  0.80212800  0.72869600  0.94385300  1
  C  C1273  1  0.19787200  0.72869600  0.05614700  1
  C  C1274  1  0.19787200  0.27130400  0.94385300  1
  C  C1275  1  0.80212800  0.27130400  0.05614700  1
  C  C1276  1  0.72869600  0.55614700  0.69787200  1
  C  C1277  1  0.72869600  0.44385300  0.30212800  1
  C  C1278  1  0.27130400  0.55614700  0.30212800  1
  C  C1279  1  0.27130400  0.44385300  0.69787200  1
  H  H1280  1  0.30760000  0.05050000  0.24180000  1
  H  H1281  1  0.69240000  0.94950000  0.24180000  1
  H  H1282  1  0.69240000  0.05050000  0.75820000  1
  H  H1283  1  0.30760000  0.94950000  0.75820000  1
  H  H1284  1  0.24180000  0.30760000  0.05050000  1
  H  H1285  1  0.24180000  0.69240000  0.94950000  1
  H  H1286  1  0.75820000  0.69240000  0.05050000  1
  H  H1287  1  0.75820000  0.30760000  0.94950000  1
  H  H1288  1  0.05050000  0.24180000  0.30760000  1
  H  H1289  1  0.94950000  0.24180000  0.69240000  1
  H  H1290  1  0.05050000  0.75820000  0.69240000  1
  H  H1291  1  0.94950000  0.75820000  0.30760000  1
  H  H1292  1  0.05050000  0.30760000  0.75820000  1
  H  H1293  1  0.94950000  0.69240000  0.75820000  1
  H  H1294  1  0.05050000  0.69240000  0.24180000  1
  H  H1295  1  0.94950000  0.30760000  0.24180000  1
  H  H1296  1  0.30760000  0.24180000  0.94950000  1
  H  H1297  1  0.69240000  0.24180000  0.05050000  1
  H  H1298  1  0.69240000  0.75820000  0.94950000  1
  H  H1299  1  0.30760000  0.75820000  0.05050000  1
  H  H1300  1  0.24180000  0.05050000  0.69240000  1
  H  H1301  1  0.24180000  0.94950000  0.30760000  1
  H  H1302  1  0.75820000  0.05050000  0.30760000  1
  H  H1303  1  0.75820000  0.94950000  0.69240000  1
  H  H1304  1  0.30760000  0.55050000  0.74180000  1
  H  H1305  1  0.69240000  0.44950000  0.74180000  1
  H  H1306  1  0.69240000  0.55050000  0.25820000  1
  H  H1307  1  0.30760000  0.44950000  0.25820000  1
  H  H1308  1  0.24180000  0.80760000  0.55050000  1
  H  H1309  1  0.24180000  0.19240000  0.44950000  1
  H  H1310  1  0.75820000  0.19240000  0.55050000  1
  H  H1311  1  0.75820000  0.80760000  0.44950000  1
  H  H1312  1  0.05050000  0.74180000  0.80760000  1
  H  H1313  1  0.94950000  0.74180000  0.19240000  1
  H  H1314  1  0.05050000  0.25820000  0.19240000  1
  H  H1315  1  0.94950000  0.25820000  0.80760000  1
  H  H1316  1  0.05050000  0.80760000  0.25820000  1
  H  H1317  1  0.94950000  0.19240000  0.25820000  1
  H  H1318  1  0.05050000  0.19240000  0.74180000  1
  H  H1319  1  0.94950000  0.80760000  0.74180000  1
  H  H1320  1  0.30760000  0.74180000  0.44950000  1
  H  H1321  1  0.69240000  0.74180000  0.55050000  1
  H  H1322  1  0.69240000  0.25820000  0.44950000  1
  H  H1323  1  0.30760000  0.25820000  0.55050000  1
  H  H1324  1  0.24180000  0.55050000  0.19240000  1
  H  H1325  1  0.24180000  0.44950000  0.80760000  1
  H  H1326  1  0.75820000  0.55050000  0.80760000  1
  H  H1327  1  0.75820000  0.44950000  0.19240000  1
  H  H1328  1  0.80760000  0.05050000  0.74180000  1
  H  H1329  1  0.19240000  0.94950000  0.74180000  1
  H  H1330  1  0.19240000  0.05050000  0.25820000  1
  H  H1331  1  0.80760000  0.94950000  0.25820000  1
  H  H1332  1  0.74180000  0.30760000  0.55050000  1
  H  H1333  1  0.74180000  0.69240000  0.44950000  1
  H  H1334  1  0.25820000  0.69240000  0.55050000  1
  H  H1335  1  0.25820000  0.30760000  0.44950000  1
  H  H1336  1  0.55050000  0.24180000  0.80760000  1
  H  H1337  1  0.44950000  0.24180000  0.19240000  1
  H  H1338  1  0.55050000  0.75820000  0.19240000  1
  H  H1339  1  0.44950000  0.75820000  0.80760000  1
  H  H1340  1  0.55050000  0.30760000  0.25820000  1
  H  H1341  1  0.44950000  0.69240000  0.25820000  1
  H  H1342  1  0.55050000  0.69240000  0.74180000  1
  H  H1343  1  0.44950000  0.30760000  0.74180000  1
  H  H1344  1  0.80760000  0.24180000  0.44950000  1
  H  H1345  1  0.19240000  0.24180000  0.55050000  1
  H  H1346  1  0.19240000  0.75820000  0.44950000  1
  H  H1347  1  0.80760000  0.75820000  0.55050000  1
  H  H1348  1  0.74180000  0.05050000  0.19240000  1
  H  H1349  1  0.74180000  0.94950000  0.80760000  1
  H  H1350  1  0.25820000  0.05050000  0.80760000  1
  H  H1351  1  0.25820000  0.94950000  0.19240000  1
  H  H1352  1  0.80760000  0.55050000  0.24180000  1
  H  H1353  1  0.19240000  0.44950000  0.24180000  1
  H  H1354  1  0.19240000  0.55050000  0.75820000  1
  H  H1355  1  0.80760000  0.44950000  0.75820000  1
  H  H1356  1  0.74180000  0.80760000  0.05050000  1
  H  H1357  1  0.74180000  0.19240000  0.94950000  1
  H  H1358  1  0.25820000  0.19240000  0.05050000  1
  H  H1359  1  0.25820000  0.80760000  0.94950000  1
  H  H1360  1  0.55050000  0.74180000  0.30760000  1
  H  H1361  1  0.44950000  0.74180000  0.69240000  1
  H  H1362  1  0.55050000  0.25820000  0.69240000  1
  H  H1363  1  0.44950000  0.25820000  0.30760000  1
  H  H1364  1  0.55050000  0.80760000  0.75820000  1
  H  H1365  1  0.44950000  0.19240000  0.75820000  1
  H  H1366  1  0.55050000  0.19240000  0.24180000  1
  H  H1367  1  0.44950000  0.80760000  0.24180000  1
  H  H1368  1  0.80760000  0.74180000  0.94950000  1
  H  H1369  1  0.19240000  0.74180000  0.05050000  1
  H  H1370  1  0.19240000  0.25820000  0.94950000  1
  H  H1371  1  0.80760000  0.25820000  0.05050000  1
  H  H1372  1  0.74180000  0.55050000  0.69240000  1
  H  H1373  1  0.74180000  0.44950000  0.30760000  1
  H  H1374  1  0.25820000  0.55050000  0.30760000  1
  H  H1375  1  0.25820000  0.44950000  0.69240000  1
  C  C1376  1  0.31665110  0.10055600  0.18791700  1
  C  C1377  1  0.68334890  0.89944400  0.18791700  1
  C  C1378  1  0.68334890  0.10055600  0.81208300  1
  C  C1379  1  0.31665110  0.89944400  0.81208300  1
  C  C1380  1  0.18791700  0.31665110  0.10055600  1
  C  C1381  1  0.18791700  0.68334890  0.89944400  1
  C  C1382  1  0.81208300  0.68334890  0.10055600  1
  C  C1383  1  0.81208300  0.31665110  0.89944400  1
  C  C1384  1  0.10055600  0.18791700  0.31665110  1
  C  C1385  1  0.89944400  0.18791700  0.68334890  1
  C  C1386  1  0.10055600  0.81208300  0.68334890  1
  C  C1387  1  0.89944400  0.81208300  0.31665110  1
  C  C1388  1  0.10055600  0.31665110  0.81208300  1
  C  C1389  1  0.89944400  0.68334890  0.81208300  1
  C  C1390  1  0.10055600  0.68334890  0.18791700  1
  C  C1391  1  0.89944400  0.31665110  0.18791700  1
  C  C1392  1  0.31665110  0.18791700  0.89944400  1
  C  C1393  1  0.68334890  0.18791700  0.10055600  1
  C  C1394  1  0.68334890  0.81208300  0.89944400  1
  C  C1395  1  0.31665110  0.81208300  0.10055600  1
  C  C1396  1  0.18791700  0.10055600  0.68334890  1
  C  C1397  1  0.18791700  0.89944400  0.31665110  1
  C  C1398  1  0.81208300  0.10055600  0.31665110  1
  C  C1399  1  0.81208300  0.89944400  0.68334890  1
  C  C1400  1  0.31665110  0.60055600  0.68791700  1
  C  C1401  1  0.68334890  0.39944400  0.68791700  1
  C  C1402  1  0.68334890  0.60055600  0.31208300  1
  C  C1403  1  0.31665110  0.39944400  0.31208300  1
  C  C1404  1  0.18791700  0.81665110  0.60055600  1
  C  C1405  1  0.18791700  0.18334890  0.39944400  1
  C  C1406  1  0.81208300  0.18334890  0.60055600  1
  C  C1407  1  0.81208300  0.81665110  0.39944400  1
  C  C1408  1  0.10055600  0.68791700  0.81665110  1
  C  C1409  1  0.89944400  0.68791700  0.18334890  1
  C  C1410  1  0.10055600  0.31208300  0.18334890  1
  C  C1411  1  0.89944400  0.31208300  0.81665110  1
  C  C1412  1  0.10055600  0.81665110  0.31208300  1
  C  C1413  1  0.89944400  0.18334890  0.31208300  1
  C  C1414  1  0.10055600  0.18334890  0.68791700  1
  C  C1415  1  0.89944400  0.81665110  0.68791700  1
  C  C1416  1  0.31665110  0.68791700  0.39944400  1
  C  C1417  1  0.68334890  0.68791700  0.60055600  1
  C  C1418  1  0.68334890  0.31208300  0.39944400  1
  C  C1419  1  0.31665110  0.31208300  0.60055600  1
  C  C1420  1  0.18791700  0.60055600  0.18334890  1
  C  C1421  1  0.18791700  0.39944400  0.81665110  1
  C  C1422  1  0.81208300  0.60055600  0.81665110  1
  C  C1423  1  0.81208300  0.39944400  0.18334890  1
  C  C1424  1  0.81665110  0.10055600  0.68791700  1
  C  C1425  1  0.18334890  0.89944400  0.68791700  1
  C  C1426  1  0.18334890  0.10055600  0.31208300  1
  C  C1427  1  0.81665110  0.89944400  0.31208300  1
  C  C1428  1  0.68791700  0.31665110  0.60055600  1
  C  C1429  1  0.68791700  0.68334890  0.39944400  1
  C  C1430  1  0.31208300  0.68334890  0.60055600  1
  C  C1431  1  0.31208300  0.31665110  0.39944400  1
  C  C1432  1  0.60055600  0.18791700  0.81665110  1
  C  C1433  1  0.39944400  0.18791700  0.18334890  1
  C  C1434  1  0.60055600  0.81208300  0.18334890  1
  C  C1435  1  0.39944400  0.81208300  0.81665110  1
  C  C1436  1  0.60055600  0.31665110  0.31208300  1
  C  C1437  1  0.39944400  0.68334890  0.31208300  1
  C  C1438  1  0.60055600  0.68334890  0.68791700  1
  C  C1439  1  0.39944400  0.31665110  0.68791700  1
  C  C1440  1  0.81665110  0.18791700  0.39944400  1
  C  C1441  1  0.18334890  0.18791700  0.60055600  1
  C  C1442  1  0.18334890  0.81208300  0.39944400  1
  C  C1443  1  0.81665110  0.81208300  0.60055600  1
  C  C1444  1  0.68791700  0.10055600  0.18334890  1
  C  C1445  1  0.68791700  0.89944400  0.81665110  1
  C  C1446  1  0.31208300  0.10055600  0.81665110  1
  C  C1447  1  0.31208300  0.89944400  0.18334890  1
  C  C1448  1  0.81665110  0.60055600  0.18791700  1
  C  C1449  1  0.18334890  0.39944400  0.18791700  1
  C  C1450  1  0.18334890  0.60055600  0.81208300  1
  C  C1451  1  0.81665110  0.39944400  0.81208300  1
  C  C1452  1  0.68791700  0.81665110  0.10055600  1
  C  C1453  1  0.68791700  0.18334890  0.89944400  1
  C  C1454  1  0.31208300  0.18334890  0.10055600  1
  C  C1455  1  0.31208300  0.81665110  0.89944400  1
  C  C1456  1  0.60055600  0.68791700  0.31665110  1
  C  C1457  1  0.39944400  0.68791700  0.68334890  1
  C  C1458  1  0.60055600  0.31208300  0.68334890  1
  C  C1459  1  0.39944400  0.31208300  0.31665110  1
  C  C1460  1  0.60055600  0.81665110  0.81208300  1
  C  C1461  1  0.39944400  0.18334890  0.81208300  1
  C  C1462  1  0.60055600  0.18334890  0.18791700  1
  C  C1463  1  0.39944400  0.81665110  0.18791700  1
  C  C1464  1  0.81665110  0.68791700  0.89944400  1
  C  C1465  1  0.18334890  0.68791700  0.10055600  1
  C  C1466  1  0.18334890  0.31208300  0.89944400  1
  C  C1467  1  0.81665110  0.31208300  0.10055600  1
  C  C1468  1  0.68791700  0.60055600  0.68334890  1
  C  C1469  1  0.68791700  0.39944400  0.31665110  1
  C  C1470  1  0.31208300  0.60055600  0.31665110  1
  C  C1471  1  0.31208300  0.39944400  0.68334890  1
  C  C1472  1  0.30324700  0.11512100  0.17656800  1
  C  C1473  1  0.69675300  0.88487900  0.17656800  1
  C  C1474  1  0.69675300  0.11512100  0.82343200  1
  C  C1475  1  0.30324700  0.88487900  0.82343200  1
  C  C1476  1  0.17656800  0.30324700  0.11512100  1
  C  C1477  1  0.17656800  0.69675300  0.88487900  1
  C  C1478  1  0.82343200  0.69675300  0.11512100  1
  C  C1479  1  0.82343200  0.30324700  0.88487900  1
  C  C1480  1  0.11512100  0.17656800  0.30324700  1
  C  C1481  1  0.88487900  0.17656800  0.69675300  1
  C  C1482  1  0.11512100  0.82343200  0.69675300  1
  C  C1483  1  0.88487900  0.82343200  0.30324700  1
  C  C1484  1  0.11512100  0.30324700  0.82343200  1
  C  C1485  1  0.88487900  0.69675300  0.82343200  1
  C  C1486  1  0.11512100  0.69675300  0.17656800  1
  C  C1487  1  0.88487900  0.30324700  0.17656800  1
  C  C1488  1  0.30324700  0.17656800  0.88487900  1
  C  C1489  1  0.69675300  0.17656800  0.11512100  1
  C  C1490  1  0.69675300  0.82343200  0.88487900  1
  C  C1491  1  0.30324700  0.82343200  0.11512100  1
  C  C1492  1  0.17656800  0.11512100  0.69675300  1
  C  C1493  1  0.17656800  0.88487900  0.30324700  1
  C  C1494  1  0.82343200  0.11512100  0.30324700  1
  C  C1495  1  0.82343200  0.88487900  0.69675300  1
  C  C1496  1  0.30324700  0.61512100  0.67656800  1
  C  C1497  1  0.69675300  0.38487900  0.67656800  1
  C  C1498  1  0.69675300  0.61512100  0.32343200  1
  C  C1499  1  0.30324700  0.38487900  0.32343200  1
  C  C1500  1  0.17656800  0.80324700  0.61512100  1
  C  C1501  1  0.17656800  0.19675300  0.38487900  1
  C  C1502  1  0.82343200  0.19675300  0.61512100  1
  C  C1503  1  0.82343200  0.80324700  0.38487900  1
  C  C1504  1  0.11512100  0.67656800  0.80324700  1
  C  C1505  1  0.88487900  0.67656800  0.19675300  1
  C  C1506  1  0.11512100  0.32343200  0.19675300  1
  C  C1507  1  0.88487900  0.32343200  0.80324700  1
  C  C1508  1  0.11512100  0.80324700  0.32343200  1
  C  C1509  1  0.88487900  0.19675300  0.32343200  1
  C  C1510  1  0.11512100  0.19675300  0.67656800  1
  C  C1511  1  0.88487900  0.80324700  0.67656800  1
  C  C1512  1  0.30324700  0.67656800  0.38487900  1
  C  C1513  1  0.69675300  0.67656800  0.61512100  1
  C  C1514  1  0.69675300  0.32343200  0.38487900  1
  C  C1515  1  0.30324700  0.32343200  0.61512100  1
  C  C1516  1  0.17656800  0.61512100  0.19675300  1
  C  C1517  1  0.17656800  0.38487900  0.80324700  1
  C  C1518  1  0.82343200  0.61512100  0.80324700  1
  C  C1519  1  0.82343200  0.38487900  0.19675300  1
  C  C1520  1  0.80324700  0.11512100  0.67656800  1
  C  C1521  1  0.19675300  0.88487900  0.67656800  1
  C  C1522  1  0.19675300  0.11512100  0.32343200  1
  C  C1523  1  0.80324700  0.88487900  0.32343200  1
  C  C1524  1  0.67656800  0.30324700  0.61512100  1
  C  C1525  1  0.67656800  0.69675300  0.38487900  1
  C  C1526  1  0.32343200  0.69675300  0.61512100  1
  C  C1527  1  0.32343200  0.30324700  0.38487900  1
  C  C1528  1  0.61512100  0.17656800  0.80324700  1
  C  C1529  1  0.38487900  0.17656800  0.19675300  1
  C  C1530  1  0.61512100  0.82343200  0.19675300  1
  C  C1531  1  0.38487900  0.82343200  0.80324700  1
  C  C1532  1  0.61512100  0.30324700  0.32343200  1
  C  C1533  1  0.38487900  0.69675300  0.32343200  1
  C  C1534  1  0.61512100  0.69675300  0.67656800  1
  C  C1535  1  0.38487900  0.30324700  0.67656800  1
  C  C1536  1  0.80324700  0.17656800  0.38487900  1
  C  C1537  1  0.19675300  0.17656800  0.61512100  1
  C  C1538  1  0.19675300  0.82343200  0.38487900  1
  C  C1539  1  0.80324700  0.82343200  0.61512100  1
  C  C1540  1  0.67656800  0.11512100  0.19675300  1
  C  C1541  1  0.67656800  0.88487900  0.80324700  1
  C  C1542  1  0.32343200  0.11512100  0.80324700  1
  C  C1543  1  0.32343200  0.88487900  0.19675300  1
  C  C1544  1  0.80324700  0.61512100  0.17656800  1
  C  C1545  1  0.19675300  0.38487900  0.17656800  1
  C  C1546  1  0.19675300  0.61512100  0.82343200  1
  C  C1547  1  0.80324700  0.38487900  0.82343200  1
  C  C1548  1  0.67656800  0.80324700  0.11512100  1
  C  C1549  1  0.67656800  0.19675300  0.88487900  1
  C  C1550  1  0.32343200  0.19675300  0.11512100  1
  C  C1551  1  0.32343200  0.80324700  0.88487900  1
  C  C1552  1  0.61512100  0.67656800  0.30324700  1
  C  C1553  1  0.38487900  0.67656800  0.69675300  1
  C  C1554  1  0.61512100  0.32343200  0.69675300  1
  C  C1555  1  0.38487900  0.32343200  0.30324700  1
  C  C1556  1  0.61512100  0.80324700  0.82343200  1
  C  C1557  1  0.38487900  0.19675300  0.82343200  1
  C  C1558  1  0.61512100  0.19675300  0.17656800  1
  C  C1559  1  0.38487900  0.80324700  0.17656800  1
  C  C1560  1  0.80324700  0.67656800  0.88487900  1
  C  C1561  1  0.19675300  0.67656800  0.11512100  1
  C  C1562  1  0.19675300  0.32343200  0.88487900  1
  C  C1563  1  0.80324700  0.32343200  0.11512100  1
  C  C1564  1  0.67656800  0.61512100  0.69675300  1
  C  C1565  1  0.67656800  0.38487900  0.30324700  1
  C  C1566  1  0.32343200  0.61512100  0.30324700  1
  C  C1567  1  0.32343200  0.38487900  0.69675300  1
  H  H1568  1  0.28810000  0.11320000  0.17660000  1
  H  H1569  1  0.71190000  0.88680000  0.17660000  1
  H  H1570  1  0.71190000  0.11320000  0.82340000  1
  H  H1571  1  0.28810000  0.88680000  0.82340000  1
  H  H1572  1  0.17660000  0.28810000  0.11320000  1
  H  H1573  1  0.17660000  0.71190000  0.88680000  1
  H  H1574  1  0.82340000  0.71190000  0.11320000  1
  H  H1575  1  0.82340000  0.28810000  0.88680000  1
  H  H1576  1  0.11320000  0.17660000  0.28810000  1
  H  H1577  1  0.88680000  0.17660000  0.71190000  1
  H  H1578  1  0.11320000  0.82340000  0.71190000  1
  H  H1579  1  0.88680000  0.82340000  0.28810000  1
  H  H1580  1  0.11320000  0.28810000  0.82340000  1
  H  H1581  1  0.88680000  0.71190000  0.82340000  1
  H  H1582  1  0.11320000  0.71190000  0.17660000  1
  H  H1583  1  0.88680000  0.28810000  0.17660000  1
  H  H1584  1  0.28810000  0.17660000  0.88680000  1
  H  H1585  1  0.71190000  0.17660000  0.11320000  1
  H  H1586  1  0.71190000  0.82340000  0.88680000  1
  H  H1587  1  0.28810000  0.82340000  0.11320000  1
  H  H1588  1  0.17660000  0.11320000  0.71190000  1
  H  H1589  1  0.17660000  0.88680000  0.28810000  1
  H  H1590  1  0.82340000  0.11320000  0.28810000  1
  H  H1591  1  0.82340000  0.88680000  0.71190000  1
  H  H1592  1  0.28810000  0.61320000  0.67660000  1
  H  H1593  1  0.71190000  0.38680000  0.67660000  1
  H  H1594  1  0.71190000  0.61320000  0.32340000  1
  H  H1595  1  0.28810000  0.38680000  0.32340000  1
  H  H1596  1  0.17660000  0.78810000  0.61320000  1
  H  H1597  1  0.17660000  0.21190000  0.38680000  1
  H  H1598  1  0.82340000  0.21190000  0.61320000  1
  H  H1599  1  0.82340000  0.78810000  0.38680000  1
  H  H1600  1  0.11320000  0.67660000  0.78810000  1
  H  H1601  1  0.88680000  0.67660000  0.21190000  1
  H  H1602  1  0.11320000  0.32340000  0.21190000  1
  H  H1603  1  0.88680000  0.32340000  0.78810000  1
  H  H1604  1  0.11320000  0.78810000  0.32340000  1
  H  H1605  1  0.88680000  0.21190000  0.32340000  1
  H  H1606  1  0.11320000  0.21190000  0.67660000  1
  H  H1607  1  0.88680000  0.78810000  0.67660000  1
  H  H1608  1  0.28810000  0.67660000  0.38680000  1
  H  H1609  1  0.71190000  0.67660000  0.61320000  1
  H  H1610  1  0.71190000  0.32340000  0.38680000  1
  H  H1611  1  0.28810000  0.32340000  0.61320000  1
  H  H1612  1  0.17660000  0.61320000  0.21190000  1
  H  H1613  1  0.17660000  0.38680000  0.78810000  1
  H  H1614  1  0.82340000  0.61320000  0.78810000  1
  H  H1615  1  0.82340000  0.38680000  0.21190000  1
  H  H1616  1  0.78810000  0.11320000  0.67660000  1
  H  H1617  1  0.21190000  0.88680000  0.67660000  1
  H  H1618  1  0.21190000  0.11320000  0.32340000  1
  H  H1619  1  0.78810000  0.88680000  0.32340000  1
  H  H1620  1  0.67660000  0.28810000  0.61320000  1
  H  H1621  1  0.67660000  0.71190000  0.38680000  1
  H  H1622  1  0.32340000  0.71190000  0.61320000  1
  H  H1623  1  0.32340000  0.28810000  0.38680000  1
  H  H1624  1  0.61320000  0.17660000  0.78810000  1
  H  H1625  1  0.38680000  0.17660000  0.21190000  1
  H  H1626  1  0.61320000  0.82340000  0.21190000  1
  H  H1627  1  0.38680000  0.82340000  0.78810000  1
  H  H1628  1  0.61320000  0.28810000  0.32340000  1
  H  H1629  1  0.38680000  0.71190000  0.32340000  1
  H  H1630  1  0.61320000  0.71190000  0.67660000  1
  H  H1631  1  0.38680000  0.28810000  0.67660000  1
  H  H1632  1  0.78810000  0.17660000  0.38680000  1
  H  H1633  1  0.21190000  0.17660000  0.61320000  1
  H  H1634  1  0.21190000  0.82340000  0.38680000  1
  H  H1635  1  0.78810000  0.82340000  0.61320000  1
  H  H1636  1  0.67660000  0.11320000  0.21190000  1
  H  H1637  1  0.67660000  0.88680000  0.78810000  1
  H  H1638  1  0.32340000  0.11320000  0.78810000  1
  H  H1639  1  0.32340000  0.88680000  0.21190000  1
  H  H1640  1  0.78810000  0.61320000  0.17660000  1
  H  H1641  1  0.21190000  0.38680000  0.17660000  1
  H  H1642  1  0.21190000  0.61320000  0.82340000  1
  H  H1643  1  0.78810000  0.38680000  0.82340000  1
  H  H1644  1  0.67660000  0.78810000  0.11320000  1
  H  H1645  1  0.67660000  0.21190000  0.88680000  1
  H  H1646  1  0.32340000  0.21190000  0.11320000  1
  H  H1647  1  0.32340000  0.78810000  0.88680000  1
  H  H1648  1  0.61320000  0.67660000  0.28810000  1
  H  H1649  1  0.38680000  0.67660000  0.71190000  1
  H  H1650  1  0.61320000  0.32340000  0.71190000  1
  H  H1651  1  0.38680000  0.32340000  0.28810000  1
  H  H1652  1  0.61320000  0.78810000  0.82340000  1
  H  H1653  1  0.38680000  0.21190000  0.82340000  1
  H  H1654  1  0.61320000  0.21190000  0.17660000  1
  H  H1655  1  0.38680000  0.78810000  0.17660000  1
  H  H1656  1  0.78810000  0.67660000  0.88680000  1
  H  H1657  1  0.21190000  0.67660000  0.11320000  1
  H  H1658  1  0.21190000  0.32340000  0.88680000  1
  H  H1659  1  0.78810000  0.32340000  0.11320000  1
  H  H1660  1  0.67660000  0.61320000  0.71190000  1
  H  H1661  1  0.67660000  0.38680000  0.28810000  1
  H  H1662  1  0.32340000  0.61320000  0.28810000  1
  H  H1663  1  0.32340000  0.38680000  0.71190000  1
  C  C1664  1  0.31248900  0.13254800  0.16507700  1
  C  C1665  1  0.68751100  0.86745200  0.16507700  1
  C  C1666  1  0.68751100  0.13254800  0.83492300  1
  C  C1667  1  0.31248900  0.86745200  0.83492300  1
  C  C1668  1  0.16507700  0.31248900  0.13254800  1
  C  C1669  1  0.16507700  0.68751100  0.86745200  1
  C  C1670  1  0.83492300  0.68751100  0.13254800  1
  C  C1671  1  0.83492300  0.31248900  0.86745200  1
  C  C1672  1  0.13254800  0.16507700  0.31248900  1
  C  C1673  1  0.86745200  0.16507700  0.68751100  1
  C  C1674  1  0.13254800  0.83492300  0.68751100  1
  C  C1675  1  0.86745200  0.83492300  0.31248900  1
  C  C1676  1  0.13254800  0.31248900  0.83492300  1
  C  C1677  1  0.86745200  0.68751100  0.83492300  1
  C  C1678  1  0.13254800  0.68751100  0.16507700  1
  C  C1679  1  0.86745200  0.31248900  0.16507700  1
  C  C1680  1  0.31248900  0.16507700  0.86745200  1
  C  C1681  1  0.68751100  0.16507700  0.13254800  1
  C  C1682  1  0.68751100  0.83492300  0.86745200  1
  C  C1683  1  0.31248900  0.83492300  0.13254800  1
  C  C1684  1  0.16507700  0.13254800  0.68751100  1
  C  C1685  1  0.16507700  0.86745200  0.31248900  1
  C  C1686  1  0.83492300  0.13254800  0.31248900  1
  C  C1687  1  0.83492300  0.86745200  0.68751100  1
  C  C1688  1  0.31248900  0.63254800  0.66507700  1
  C  C1689  1  0.68751100  0.36745200  0.66507700  1
  C  C1690  1  0.68751100  0.63254800  0.33492300  1
  C  C1691  1  0.31248900  0.36745200  0.33492300  1
  C  C1692  1  0.16507700  0.81248900  0.63254800  1
  C  C1693  1  0.16507700  0.18751100  0.36745200  1
  C  C1694  1  0.83492300  0.18751100  0.63254800  1
  C  C1695  1  0.83492300  0.81248900  0.36745200  1
  C  C1696  1  0.13254800  0.66507700  0.81248900  1
  C  C1697  1  0.86745200  0.66507700  0.18751100  1
  C  C1698  1  0.13254800  0.33492300  0.18751100  1
  C  C1699  1  0.86745200  0.33492300  0.81248900  1
  C  C1700  1  0.13254800  0.81248900  0.33492300  1
  C  C1701  1  0.86745200  0.18751100  0.33492300  1
  C  C1702  1  0.13254800  0.18751100  0.66507700  1
  C  C1703  1  0.86745200  0.81248900  0.66507700  1
  C  C1704  1  0.31248900  0.66507700  0.36745200  1
  C  C1705  1  0.68751100  0.66507700  0.63254800  1
  C  C1706  1  0.68751100  0.33492300  0.36745200  1
  C  C1707  1  0.31248900  0.33492300  0.63254800  1
  C  C1708  1  0.16507700  0.63254800  0.18751100  1
  C  C1709  1  0.16507700  0.36745200  0.81248900  1
  C  C1710  1  0.83492300  0.63254800  0.81248900  1
  C  C1711  1  0.83492300  0.36745200  0.18751100  1
  C  C1712  1  0.81248900  0.13254800  0.66507700  1
  C  C1713  1  0.18751100  0.86745200  0.66507700  1
  C  C1714  1  0.18751100  0.13254800  0.33492300  1
  C  C1715  1  0.81248900  0.86745200  0.33492300  1
  C  C1716  1  0.66507700  0.31248900  0.63254800  1
  C  C1717  1  0.66507700  0.68751100  0.36745200  1
  C  C1718  1  0.33492300  0.68751100  0.63254800  1
  C  C1719  1  0.33492300  0.31248900  0.36745200  1
  C  C1720  1  0.63254800  0.16507700  0.81248900  1
  C  C1721  1  0.36745200  0.16507700  0.18751100  1
  C  C1722  1  0.63254800  0.83492300  0.18751100  1
  C  C1723  1  0.36745200  0.83492300  0.81248900  1
  C  C1724  1  0.63254800  0.31248900  0.33492300  1
  C  C1725  1  0.36745200  0.68751100  0.33492300  1
  C  C1726  1  0.63254800  0.68751100  0.66507700  1
  C  C1727  1  0.36745200  0.31248900  0.66507700  1
  C  C1728  1  0.81248900  0.16507700  0.36745200  1
  C  C1729  1  0.18751100  0.16507700  0.63254800  1
  C  C1730  1  0.18751100  0.83492300  0.36745200  1
  C  C1731  1  0.81248900  0.83492300  0.63254800  1
  C  C1732  1  0.66507700  0.13254800  0.18751100  1
  C  C1733  1  0.66507700  0.86745200  0.81248900  1
  C  C1734  1  0.33492300  0.13254800  0.81248900  1
  C  C1735  1  0.33492300  0.86745200  0.18751100  1
  C  C1736  1  0.81248900  0.63254800  0.16507700  1
  C  C1737  1  0.18751100  0.36745200  0.16507700  1
  C  C1738  1  0.18751100  0.63254800  0.83492300  1
  C  C1739  1  0.81248900  0.36745200  0.83492300  1
  C  C1740  1  0.66507700  0.81248900  0.13254800  1
  C  C1741  1  0.66507700  0.18751100  0.86745200  1
  C  C1742  1  0.33492300  0.18751100  0.13254800  1
  C  C1743  1  0.33492300  0.81248900  0.86745200  1
  C  C1744  1  0.63254800  0.66507700  0.31248900  1
  C  C1745  1  0.36745200  0.66507700  0.68751100  1
  C  C1746  1  0.63254800  0.33492300  0.68751100  1
  C  C1747  1  0.36745200  0.33492300  0.31248900  1
  C  C1748  1  0.63254800  0.81248900  0.83492300  1
  C  C1749  1  0.36745200  0.18751100  0.83492300  1
  C  C1750  1  0.63254800  0.18751100  0.16507700  1
  C  C1751  1  0.36745200  0.81248900  0.16507700  1
  C  C1752  1  0.81248900  0.66507700  0.86745200  1
  C  C1753  1  0.18751100  0.66507700  0.13254800  1
  C  C1754  1  0.18751100  0.33492300  0.86745200  1
  C  C1755  1  0.81248900  0.33492300  0.13254800  1
  C  C1756  1  0.66507700  0.63254800  0.68751100  1
  C  C1757  1  0.66507700  0.36745200  0.31248900  1
  C  C1758  1  0.33492300  0.63254800  0.31248900  1
  C  C1759  1  0.33492300  0.36745200  0.68751100  1
  H  H1760  1  0.30350000  0.14230000  0.15750000  1
  H  H1761  1  0.69650000  0.85770000  0.15750000  1
  H  H1762  1  0.69650000  0.14230000  0.84250000  1
  H  H1763  1  0.30350000  0.85770000  0.84250000  1
  H  H1764  1  0.15750000  0.30350000  0.14230000  1
  H  H1765  1  0.15750000  0.69650000  0.85770000  1
  H  H1766  1  0.84250000  0.69650000  0.14230000  1
  H  H1767  1  0.84250000  0.30350000  0.85770000  1
  H  H1768  1  0.14230000  0.15750000  0.30350000  1
  H  H1769  1  0.85770000  0.15750000  0.69650000  1
  H  H1770  1  0.14230000  0.84250000  0.69650000  1
  H  H1771  1  0.85770000  0.84250000  0.30350000  1
  H  H1772  1  0.14230000  0.30350000  0.84250000  1
  H  H1773  1  0.85770000  0.69650000  0.84250000  1
  H  H1774  1  0.14230000  0.69650000  0.15750000  1
  H  H1775  1  0.85770000  0.30350000  0.15750000  1
  H  H1776  1  0.30350000  0.15750000  0.85770000  1
  H  H1777  1  0.69650000  0.15750000  0.14230000  1
  H  H1778  1  0.69650000  0.84250000  0.85770000  1
  H  H1779  1  0.30350000  0.84250000  0.14230000  1
  H  H1780  1  0.15750000  0.14230000  0.69650000  1
  H  H1781  1  0.15750000  0.85770000  0.30350000  1
  H  H1782  1  0.84250000  0.14230000  0.30350000  1
  H  H1783  1  0.84250000  0.85770000  0.69650000  1
  H  H1784  1  0.30350000  0.64230000  0.65750000  1
  H  H1785  1  0.69650000  0.35770000  0.65750000  1
  H  H1786  1  0.69650000  0.64230000  0.34250000  1
  H  H1787  1  0.30350000  0.35770000  0.34250000  1
  H  H1788  1  0.15750000  0.80350000  0.64230000  1
  H  H1789  1  0.15750000  0.19650000  0.35770000  1
  H  H1790  1  0.84250000  0.19650000  0.64230000  1
  H  H1791  1  0.84250000  0.80350000  0.35770000  1
  H  H1792  1  0.14230000  0.65750000  0.80350000  1
  H  H1793  1  0.85770000  0.65750000  0.19650000  1
  H  H1794  1  0.14230000  0.34250000  0.19650000  1
  H  H1795  1  0.85770000  0.34250000  0.80350000  1
  H  H1796  1  0.14230000  0.80350000  0.34250000  1
  H  H1797  1  0.85770000  0.19650000  0.34250000  1
  H  H1798  1  0.14230000  0.19650000  0.65750000  1
  H  H1799  1  0.85770000  0.80350000  0.65750000  1
  H  H1800  1  0.30350000  0.65750000  0.35770000  1
  H  H1801  1  0.69650000  0.65750000  0.64230000  1
  H  H1802  1  0.69650000  0.34250000  0.35770000  1
  H  H1803  1  0.30350000  0.34250000  0.64230000  1
  H  H1804  1  0.15750000  0.64230000  0.19650000  1
  H  H1805  1  0.15750000  0.35770000  0.80350000  1
  H  H1806  1  0.84250000  0.64230000  0.80350000  1
  H  H1807  1  0.84250000  0.35770000  0.19650000  1
  H  H1808  1  0.80350000  0.14230000  0.65750000  1
  H  H1809  1  0.19650000  0.85770000  0.65750000  1
  H  H1810  1  0.19650000  0.14230000  0.34250000  1
  H  H1811  1  0.80350000  0.85770000  0.34250000  1
  H  H1812  1  0.65750000  0.30350000  0.64230000  1
  H  H1813  1  0.65750000  0.69650000  0.35770000  1
  H  H1814  1  0.34250000  0.69650000  0.64230000  1
  H  H1815  1  0.34250000  0.30350000  0.35770000  1
  H  H1816  1  0.64230000  0.15750000  0.80350000  1
  H  H1817  1  0.35770000  0.15750000  0.19650000  1
  H  H1818  1  0.64230000  0.84250000  0.19650000  1
  H  H1819  1  0.35770000  0.84250000  0.80350000  1
  H  H1820  1  0.64230000  0.30350000  0.34250000  1
  H  H1821  1  0.35770000  0.69650000  0.34250000  1
  H  H1822  1  0.64230000  0.69650000  0.65750000  1
  H  H1823  1  0.35770000  0.30350000  0.65750000  1
  H  H1824  1  0.80350000  0.15750000  0.35770000  1
  H  H1825  1  0.19650000  0.15750000  0.64230000  1
  H  H1826  1  0.19650000  0.84250000  0.35770000  1
  H  H1827  1  0.80350000  0.84250000  0.64230000  1
  H  H1828  1  0.65750000  0.14230000  0.19650000  1
  H  H1829  1  0.65750000  0.85770000  0.80350000  1
  H  H1830  1  0.34250000  0.14230000  0.80350000  1
  H  H1831  1  0.34250000  0.85770000  0.19650000  1
  H  H1832  1  0.80350000  0.64230000  0.15750000  1
  H  H1833  1  0.19650000  0.35770000  0.15750000  1
  H  H1834  1  0.19650000  0.64230000  0.84250000  1
  H  H1835  1  0.80350000  0.35770000  0.84250000  1
  H  H1836  1  0.65750000  0.80350000  0.14230000  1
  H  H1837  1  0.65750000  0.19650000  0.85770000  1
  H  H1838  1  0.34250000  0.19650000  0.14230000  1
  H  H1839  1  0.34250000  0.80350000  0.85770000  1
  H  H1840  1  0.64230000  0.65750000  0.30350000  1
  H  H1841  1  0.35770000  0.65750000  0.69650000  1
  H  H1842  1  0.64230000  0.34250000  0.69650000  1
  H  H1843  1  0.35770000  0.34250000  0.30350000  1
  H  H1844  1  0.64230000  0.80350000  0.84250000  1
  H  H1845  1  0.35770000  0.19650000  0.84250000  1
  H  H1846  1  0.64230000  0.19650000  0.15750000  1
  H  H1847  1  0.35770000  0.80350000  0.15750000  1
  H  H1848  1  0.80350000  0.65750000  0.85770000  1
  H  H1849  1  0.19650000  0.65750000  0.14230000  1
  H  H1850  1  0.19650000  0.34250000  0.85770000  1
  H  H1851  1  0.80350000  0.34250000  0.14230000  1
  H  H1852  1  0.65750000  0.64230000  0.69650000  1
  H  H1853  1  0.65750000  0.35770000  0.30350000  1
  H  H1854  1  0.34250000  0.64230000  0.30350000  1
  H  H1855  1  0.34250000  0.35770000  0.69650000  1
  C  C1856  1  0.33512100  0.13540600  0.16495800  1
  C  C1857  1  0.66487900  0.86459400  0.16495800  1
  C  C1858  1  0.66487900  0.13540600  0.83504200  1
  C  C1859  1  0.33512100  0.86459400  0.83504200  1
  C  C1860  1  0.16495800  0.33512100  0.13540600  1
  C  C1861  1  0.16495800  0.66487900  0.86459400  1
  C  C1862  1  0.83504200  0.66487900  0.13540600  1
  C  C1863  1  0.83504200  0.33512100  0.86459400  1
  C  C1864  1  0.13540600  0.16495800  0.33512100  1
  C  C1865  1  0.86459400  0.16495800  0.66487900  1
  C  C1866  1  0.13540600  0.83504200  0.66487900  1
  C  C1867  1  0.86459400  0.83504200  0.33512100  1
  C  C1868  1  0.13540600  0.33512100  0.83504200  1
  C  C1869  1  0.86459400  0.66487900  0.83504200  1
  C  C1870  1  0.13540600  0.66487900  0.16495800  1
  C  C1871  1  0.86459400  0.33512100  0.16495800  1
  C  C1872  1  0.33512100  0.16495800  0.86459400  1
  C  C1873  1  0.66487900  0.16495800  0.13540600  1
  C  C1874  1  0.66487900  0.83504200  0.86459400  1
  C  C1875  1  0.33512100  0.83504200  0.13540600  1
  C  C1876  1  0.16495800  0.13540600  0.66487900  1
  C  C1877  1  0.16495800  0.86459400  0.33512100  1
  C  C1878  1  0.83504200  0.13540600  0.33512100  1
  C  C1879  1  0.83504200  0.86459400  0.66487900  1
  C  C1880  1  0.33512100  0.63540600  0.66495800  1
  C  C1881  1  0.66487900  0.36459400  0.66495800  1
  C  C1882  1  0.66487900  0.63540600  0.33504200  1
  C  C1883  1  0.33512100  0.36459400  0.33504200  1
  C  C1884  1  0.16495800  0.83512100  0.63540600  1
  C  C1885  1  0.16495800  0.16487900  0.36459400  1
  C  C1886  1  0.83504200  0.16487900  0.63540600  1
  C  C1887  1  0.83504200  0.83512100  0.36459400  1
  C  C1888  1  0.13540600  0.66495800  0.83512100  1
  C  C1889  1  0.86459400  0.66495800  0.16487900  1
  C  C1890  1  0.13540600  0.33504200  0.16487900  1
  C  C1891  1  0.86459400  0.33504200  0.83512100  1
  C  C1892  1  0.13540600  0.83512100  0.33504200  1
  C  C1893  1  0.86459400  0.16487900  0.33504200  1
  C  C1894  1  0.13540600  0.16487900  0.66495800  1
  C  C1895  1  0.86459400  0.83512100  0.66495800  1
  C  C1896  1  0.33512100  0.66495800  0.36459400  1
  C  C1897  1  0.66487900  0.66495800  0.63540600  1
  C  C1898  1  0.66487900  0.33504200  0.36459400  1
  C  C1899  1  0.33512100  0.33504200  0.63540600  1
  C  C1900  1  0.16495800  0.63540600  0.16487900  1
  C  C1901  1  0.16495800  0.36459400  0.83512100  1
  C  C1902  1  0.83504200  0.63540600  0.83512100  1
  C  C1903  1  0.83504200  0.36459400  0.16487900  1
  C  C1904  1  0.83512100  0.13540600  0.66495800  1
  C  C1905  1  0.16487900  0.86459400  0.66495800  1
  C  C1906  1  0.16487900  0.13540600  0.33504200  1
  C  C1907  1  0.83512100  0.86459400  0.33504200  1
  C  C1908  1  0.66495800  0.33512100  0.63540600  1
  C  C1909  1  0.66495800  0.66487900  0.36459400  1
  C  C1910  1  0.33504200  0.66487900  0.63540600  1
  C  C1911  1  0.33504200  0.33512100  0.36459400  1
  C  C1912  1  0.63540600  0.16495800  0.83512100  1
  C  C1913  1  0.36459400  0.16495800  0.16487900  1
  C  C1914  1  0.63540600  0.83504200  0.16487900  1
  C  C1915  1  0.36459400  0.83504200  0.83512100  1
  C  C1916  1  0.63540600  0.33512100  0.33504200  1
  C  C1917  1  0.36459400  0.66487900  0.33504200  1
  C  C1918  1  0.63540600  0.66487900  0.66495800  1
  C  C1919  1  0.36459400  0.33512100  0.66495800  1
  C  C1920  1  0.83512100  0.16495800  0.36459400  1
  C  C1921  1  0.16487900  0.16495800  0.63540600  1
  C  C1922  1  0.16487900  0.83504200  0.36459400  1
  C  C1923  1  0.83512100  0.83504200  0.63540600  1
  C  C1924  1  0.66495800  0.13540600  0.16487900  1
  C  C1925  1  0.66495800  0.86459400  0.83512100  1
  C  C1926  1  0.33504200  0.13540600  0.83512100  1
  C  C1927  1  0.33504200  0.86459400  0.16487900  1
  C  C1928  1  0.83512100  0.63540600  0.16495800  1
  C  C1929  1  0.16487900  0.36459400  0.16495800  1
  C  C1930  1  0.16487900  0.63540600  0.83504200  1
  C  C1931  1  0.83512100  0.36459400  0.83504200  1
  C  C1932  1  0.66495800  0.83512100  0.13540600  1
  C  C1933  1  0.66495800  0.16487900  0.86459400  1
  C  C1934  1  0.33504200  0.16487900  0.13540600  1
  C  C1935  1  0.33504200  0.83512100  0.86459400  1
  C  C1936  1  0.63540600  0.66495800  0.33512100  1
  C  C1937  1  0.36459400  0.66495800  0.66487900  1
  C  C1938  1  0.63540600  0.33504200  0.66487900  1
  C  C1939  1  0.36459400  0.33504200  0.33512100  1
  C  C1940  1  0.63540600  0.83512100  0.83504200  1
  C  C1941  1  0.36459400  0.16487900  0.83504200  1
  C  C1942  1  0.63540600  0.16487900  0.16495800  1
  C  C1943  1  0.36459400  0.83512100  0.16495800  1
  C  C1944  1  0.83512100  0.66495800  0.86459400  1
  C  C1945  1  0.16487900  0.66495800  0.13540600  1
  C  C1946  1  0.16487900  0.33504200  0.86459400  1
  C  C1947  1  0.83512100  0.33504200  0.13540600  1
  C  C1948  1  0.66495800  0.63540600  0.66487900  1
  C  C1949  1  0.66495800  0.36459400  0.33512100  1
  C  C1950  1  0.33504200  0.63540600  0.33512100  1
  C  C1951  1  0.33504200  0.36459400  0.66487900  1
  C  C1952  1  0.34852600  0.12083900  0.17630900  1
  C  C1953  1  0.65147400  0.87916100  0.17630900  1
  C  C1954  1  0.65147400  0.12083900  0.82369100  1
  C  C1955  1  0.34852600  0.87916100  0.82369100  1
  C  C1956  1  0.17630900  0.34852600  0.12083900  1
  C  C1957  1  0.17630900  0.65147400  0.87916100  1
  C  C1958  1  0.82369100  0.65147400  0.12083900  1
  C  C1959  1  0.82369100  0.34852600  0.87916100  1
  C  C1960  1  0.12083900  0.17630900  0.34852600  1
  C  C1961  1  0.87916100  0.17630900  0.65147400  1
  C  C1962  1  0.12083900  0.82369100  0.65147400  1
  C  C1963  1  0.87916100  0.82369100  0.34852600  1
  C  C1964  1  0.12083900  0.34852600  0.82369100  1
  C  C1965  1  0.87916100  0.65147400  0.82369100  1
  C  C1966  1  0.12083900  0.65147400  0.17630900  1
  C  C1967  1  0.87916100  0.34852600  0.17630900  1
  C  C1968  1  0.34852600  0.17630900  0.87916100  1
  C  C1969  1  0.65147400  0.17630900  0.12083900  1
  C  C1970  1  0.65147400  0.82369100  0.87916100  1
  C  C1971  1  0.34852600  0.82369100  0.12083900  1
  C  C1972  1  0.17630900  0.12083900  0.65147400  1
  C  C1973  1  0.17630900  0.87916100  0.34852600  1
  C  C1974  1  0.82369100  0.12083900  0.34852600  1
  C  C1975  1  0.82369100  0.87916100  0.65147400  1
  C  C1976  1  0.34852600  0.62083900  0.67630900  1
  C  C1977  1  0.65147400  0.37916100  0.67630900  1
  C  C1978  1  0.65147400  0.62083900  0.32369100  1
  C  C1979  1  0.34852600  0.37916100  0.32369100  1
  C  C1980  1  0.17630900  0.84852600  0.62083900  1
  C  C1981  1  0.17630900  0.15147400  0.37916100  1
  C  C1982  1  0.82369100  0.15147400  0.62083900  1
  C  C1983  1  0.82369100  0.84852600  0.37916100  1
  C  C1984  1  0.12083900  0.67630900  0.84852600  1
  C  C1985  1  0.87916100  0.67630900  0.15147400  1
  C  C1986  1  0.12083900  0.32369100  0.15147400  1
  C  C1987  1  0.87916100  0.32369100  0.84852600  1
  C  C1988  1  0.12083900  0.84852600  0.32369100  1
  C  C1989  1  0.87916100  0.15147400  0.32369100  1
  C  C1990  1  0.12083900  0.15147400  0.67630900  1
  C  C1991  1  0.87916100  0.84852600  0.67630900  1
  C  C1992  1  0.34852600  0.67630900  0.37916100  1
  C  C1993  1  0.65147400  0.67630900  0.62083900  1
  C  C1994  1  0.65147400  0.32369100  0.37916100  1
  C  C1995  1  0.34852600  0.32369100  0.62083900  1
  C  C1996  1  0.17630900  0.62083900  0.15147400  1
  C  C1997  1  0.17630900  0.37916100  0.84852600  1
  C  C1998  1  0.82369100  0.62083900  0.84852600  1
  C  C1999  1  0.82369100  0.37916100  0.15147400  1
  C  C2000  1  0.84852600  0.12083900  0.67630900  1
  C  C2001  1  0.15147400  0.87916100  0.67630900  1
  C  C2002  1  0.15147400  0.12083900  0.32369100  1
  C  C2003  1  0.84852600  0.87916100  0.32369100  1
  C  C2004  1  0.67630900  0.34852600  0.62083900  1
  C  C2005  1  0.67630900  0.65147400  0.37916100  1
  C  C2006  1  0.32369100  0.65147400  0.62083900  1
  C  C2007  1  0.32369100  0.34852600  0.37916100  1
  C  C2008  1  0.62083900  0.17630900  0.84852600  1
  C  C2009  1  0.37916100  0.17630900  0.15147400  1
  C  C2010  1  0.62083900  0.82369100  0.15147400  1
  C  C2011  1  0.37916100  0.82369100  0.84852600  1
  C  C2012  1  0.62083900  0.34852600  0.32369100  1
  C  C2013  1  0.37916100  0.65147400  0.32369100  1
  C  C2014  1  0.62083900  0.65147400  0.67630900  1
  C  C2015  1  0.37916100  0.34852600  0.67630900  1
  C  C2016  1  0.84852600  0.17630900  0.37916100  1
  C  C2017  1  0.15147400  0.17630900  0.62083900  1
  C  C2018  1  0.15147400  0.82369100  0.37916100  1
  C  C2019  1  0.84852600  0.82369100  0.62083900  1
  C  C2020  1  0.67630900  0.12083900  0.15147400  1
  C  C2021  1  0.67630900  0.87916100  0.84852600  1
  C  C2022  1  0.32369100  0.12083900  0.84852600  1
  C  C2023  1  0.32369100  0.87916100  0.15147400  1
  C  C2024  1  0.84852600  0.62083900  0.17630900  1
  C  C2025  1  0.15147400  0.37916100  0.17630900  1
  C  C2026  1  0.15147400  0.62083900  0.82369100  1
  C  C2027  1  0.84852600  0.37916100  0.82369100  1
  C  C2028  1  0.67630900  0.84852600  0.12083900  1
  C  C2029  1  0.67630900  0.15147400  0.87916100  1
  C  C2030  1  0.32369100  0.15147400  0.12083900  1
  C  C2031  1  0.32369100  0.84852600  0.87916100  1
  C  C2032  1  0.62083900  0.67630900  0.34852600  1
  C  C2033  1  0.37916100  0.67630900  0.65147400  1
  C  C2034  1  0.62083900  0.32369100  0.65147400  1
  C  C2035  1  0.37916100  0.32369100  0.34852600  1
  C  C2036  1  0.62083900  0.84852600  0.82369100  1
  C  C2037  1  0.37916100  0.15147400  0.82369100  1
  C  C2038  1  0.62083900  0.15147400  0.17630900  1
  C  C2039  1  0.37916100  0.84852600  0.17630900  1
  C  C2040  1  0.84852600  0.67630900  0.87916100  1
  C  C2041  1  0.15147400  0.67630900  0.12083900  1
  C  C2042  1  0.15147400  0.32369100  0.87916100  1
  C  C2043  1  0.84852600  0.32369100  0.12083900  1
  C  C2044  1  0.67630900  0.62083900  0.65147400  1
  C  C2045  1  0.67630900  0.37916100  0.34852600  1
  C  C2046  1  0.32369100  0.62083900  0.34852600  1
  C  C2047  1  0.32369100  0.37916100  0.65147400  1
  H  H2048  1  0.36370000  0.12270000  0.17620000  1
  H  H2049  1  0.63630000  0.87730000  0.17620000  1
  H  H2050  1  0.63630000  0.12270000  0.82380000  1
  H  H2051  1  0.36370000  0.87730000  0.82380000  1
  H  H2052  1  0.17620000  0.36370000  0.12270000  1
  H  H2053  1  0.17620000  0.63630000  0.87730000  1
  H  H2054  1  0.82380000  0.63630000  0.12270000  1
  H  H2055  1  0.82380000  0.36370000  0.87730000  1
  H  H2056  1  0.12270000  0.17620000  0.36370000  1
  H  H2057  1  0.87730000  0.17620000  0.63630000  1
  H  H2058  1  0.12270000  0.82380000  0.63630000  1
  H  H2059  1  0.87730000  0.82380000  0.36370000  1
  H  H2060  1  0.12270000  0.36370000  0.82380000  1
  H  H2061  1  0.87730000  0.63630000  0.82380000  1
  H  H2062  1  0.12270000  0.63630000  0.17620000  1
  H  H2063  1  0.87730000  0.36370000  0.17620000  1
  H  H2064  1  0.36370000  0.17620000  0.87730000  1
  H  H2065  1  0.63630000  0.17620000  0.12270000  1
  H  H2066  1  0.63630000  0.82380000  0.87730000  1
  H  H2067  1  0.36370000  0.82380000  0.12270000  1
  H  H2068  1  0.17620000  0.12270000  0.63630000  1
  H  H2069  1  0.17620000  0.87730000  0.36370000  1
  H  H2070  1  0.82380000  0.12270000  0.36370000  1
  H  H2071  1  0.82380000  0.87730000  0.63630000  1
  H  H2072  1  0.36370000  0.62270000  0.67620000  1
  H  H2073  1  0.63630000  0.37730000  0.67620000  1
  H  H2074  1  0.63630000  0.62270000  0.32380000  1
  H  H2075  1  0.36370000  0.37730000  0.32380000  1
  H  H2076  1  0.17620000  0.86370000  0.62270000  1
  H  H2077  1  0.17620000  0.13630000  0.37730000  1
  H  H2078  1  0.82380000  0.13630000  0.62270000  1
  H  H2079  1  0.82380000  0.86370000  0.37730000  1
  H  H2080  1  0.12270000  0.67620000  0.86370000  1
  H  H2081  1  0.87730000  0.67620000  0.13630000  1
  H  H2082  1  0.12270000  0.32380000  0.13630000  1
  H  H2083  1  0.87730000  0.32380000  0.86370000  1
  H  H2084  1  0.12270000  0.86370000  0.32380000  1
  H  H2085  1  0.87730000  0.13630000  0.32380000  1
  H  H2086  1  0.12270000  0.13630000  0.67620000  1
  H  H2087  1  0.87730000  0.86370000  0.67620000  1
  H  H2088  1  0.36370000  0.67620000  0.37730000  1
  H  H2089  1  0.63630000  0.67620000  0.62270000  1
  H  H2090  1  0.63630000  0.32380000  0.37730000  1
  H  H2091  1  0.36370000  0.32380000  0.62270000  1
  H  H2092  1  0.17620000  0.62270000  0.13630000  1
  H  H2093  1  0.17620000  0.37730000  0.86370000  1
  H  H2094  1  0.82380000  0.62270000  0.86370000  1
  H  H2095  1  0.82380000  0.37730000  0.13630000  1
  H  H2096  1  0.86370000  0.12270000  0.67620000  1
  H  H2097  1  0.13630000  0.87730000  0.67620000  1
  H  H2098  1  0.13630000  0.12270000  0.32380000  1
  H  H2099  1  0.86370000  0.87730000  0.32380000  1
  H  H2100  1  0.67620000  0.36370000  0.62270000  1
  H  H2101  1  0.67620000  0.63630000  0.37730000  1
  H  H2102  1  0.32380000  0.63630000  0.62270000  1
  H  H2103  1  0.32380000  0.36370000  0.37730000  1
  H  H2104  1  0.62270000  0.17620000  0.86370000  1
  H  H2105  1  0.37730000  0.17620000  0.13630000  1
  H  H2106  1  0.62270000  0.82380000  0.13630000  1
  H  H2107  1  0.37730000  0.82380000  0.86370000  1
  H  H2108  1  0.62270000  0.36370000  0.32380000  1
  H  H2109  1  0.37730000  0.63630000  0.32380000  1
  H  H2110  1  0.62270000  0.63630000  0.67620000  1
  H  H2111  1  0.37730000  0.36370000  0.67620000  1
  H  H2112  1  0.86370000  0.17620000  0.37730000  1
  H  H2113  1  0.13630000  0.17620000  0.62270000  1
  H  H2114  1  0.13630000  0.82380000  0.37730000  1
  H  H2115  1  0.86370000  0.82380000  0.62270000  1
  H  H2116  1  0.67620000  0.12270000  0.13630000  1
  H  H2117  1  0.67620000  0.87730000  0.86370000  1
  H  H2118  1  0.32380000  0.12270000  0.86370000  1
  H  H2119  1  0.32380000  0.87730000  0.13630000  1
  H  H2120  1  0.86370000  0.62270000  0.17620000  1
  H  H2121  1  0.13630000  0.37730000  0.17620000  1
  H  H2122  1  0.13630000  0.62270000  0.82380000  1
  H  H2123  1  0.86370000  0.37730000  0.82380000  1
  H  H2124  1  0.67620000  0.86370000  0.12270000  1
  H  H2125  1  0.67620000  0.13630000  0.87730000  1
  H  H2126  1  0.32380000  0.13630000  0.12270000  1
  H  H2127  1  0.32380000  0.86370000  0.87730000  1
  H  H2128  1  0.62270000  0.67620000  0.36370000  1
  H  H2129  1  0.37730000  0.67620000  0.63630000  1
  H  H2130  1  0.62270000  0.32380000  0.63630000  1
  H  H2131  1  0.37730000  0.32380000  0.36370000  1
  H  H2132  1  0.62270000  0.86370000  0.82380000  1
  H  H2133  1  0.37730000  0.13630000  0.82380000  1
  H  H2134  1  0.62270000  0.13630000  0.17620000  1
  H  H2135  1  0.37730000  0.86370000  0.17620000  1
  H  H2136  1  0.86370000  0.67620000  0.87730000  1
  H  H2137  1  0.13630000  0.67620000  0.12270000  1
  H  H2138  1  0.13630000  0.32380000  0.87730000  1
  H  H2139  1  0.86370000  0.32380000  0.12270000  1
  H  H2140  1  0.67620000  0.62270000  0.63630000  1
  H  H2141  1  0.67620000  0.37730000  0.36370000  1
  H  H2142  1  0.32380000  0.62270000  0.36370000  1
  H  H2143  1  0.32380000  0.37730000  0.63630000  1
  C  C2144  1  0.33929100  0.10341700  0.18779800  1
  C  C2145  1  0.66070900  0.89658300  0.18779800  1
  C  C2146  1  0.66070900  0.10341700  0.81220200  1
  C  C2147  1  0.33929100  0.89658300  0.81220200  1
  C  C2148  1  0.18779800  0.33929100  0.10341700  1
  C  C2149  1  0.18779800  0.66070900  0.89658300  1
  C  C2150  1  0.81220200  0.66070900  0.10341700  1
  C  C2151  1  0.81220200  0.33929100  0.89658300  1
  C  C2152  1  0.10341700  0.18779800  0.33929100  1
  C  C2153  1  0.89658300  0.18779800  0.66070900  1
  C  C2154  1  0.10341700  0.81220200  0.66070900  1
  C  C2155  1  0.89658300  0.81220200  0.33929100  1
  C  C2156  1  0.10341700  0.33929100  0.81220200  1
  C  C2157  1  0.89658300  0.66070900  0.81220200  1
  C  C2158  1  0.10341700  0.66070900  0.18779800  1
  C  C2159  1  0.89658300  0.33929100  0.18779800  1
  C  C2160  1  0.33929100  0.18779800  0.89658300  1
  C  C2161  1  0.66070900  0.18779800  0.10341700  1
  C  C2162  1  0.66070900  0.81220200  0.89658300  1
  C  C2163  1  0.33929100  0.81220200  0.10341700  1
  C  C2164  1  0.18779800  0.10341700  0.66070900  1
  C  C2165  1  0.18779800  0.89658300  0.33929100  1
  C  C2166  1  0.81220200  0.10341700  0.33929100  1
  C  C2167  1  0.81220200  0.89658300  0.66070900  1
  C  C2168  1  0.33929100  0.60341700  0.68779800  1
  C  C2169  1  0.66070900  0.39658300  0.68779800  1
  C  C2170  1  0.66070900  0.60341700  0.31220200  1
  C  C2171  1  0.33929100  0.39658300  0.31220200  1
  C  C2172  1  0.18779800  0.83929100  0.60341700  1
  C  C2173  1  0.18779800  0.16070900  0.39658300  1
  C  C2174  1  0.81220200  0.16070900  0.60341700  1
  C  C2175  1  0.81220200  0.83929100  0.39658300  1
  C  C2176  1  0.10341700  0.68779800  0.83929100  1
  C  C2177  1  0.89658300  0.68779800  0.16070900  1
  C  C2178  1  0.10341700  0.31220200  0.16070900  1
  C  C2179  1  0.89658300  0.31220200  0.83929100  1
  C  C2180  1  0.10341700  0.83929100  0.31220200  1
  C  C2181  1  0.89658300  0.16070900  0.31220200  1
  C  C2182  1  0.10341700  0.16070900  0.68779800  1
  C  C2183  1  0.89658300  0.83929100  0.68779800  1
  C  C2184  1  0.33929100  0.68779800  0.39658300  1
  C  C2185  1  0.66070900  0.68779800  0.60341700  1
  C  C2186  1  0.66070900  0.31220200  0.39658300  1
  C  C2187  1  0.33929100  0.31220200  0.60341700  1
  C  C2188  1  0.18779800  0.60341700  0.16070900  1
  C  C2189  1  0.18779800  0.39658300  0.83929100  1
  C  C2190  1  0.81220200  0.60341700  0.83929100  1
  C  C2191  1  0.81220200  0.39658300  0.16070900  1
  C  C2192  1  0.83929100  0.10341700  0.68779800  1
  C  C2193  1  0.16070900  0.89658300  0.68779800  1
  C  C2194  1  0.16070900  0.10341700  0.31220200  1
  C  C2195  1  0.83929100  0.89658300  0.31220200  1
  C  C2196  1  0.68779800  0.33929100  0.60341700  1
  C  C2197  1  0.68779800  0.66070900  0.39658300  1
  C  C2198  1  0.31220200  0.66070900  0.60341700  1
  C  C2199  1  0.31220200  0.33929100  0.39658300  1
  C  C2200  1  0.60341700  0.18779800  0.83929100  1
  C  C2201  1  0.39658300  0.18779800  0.16070900  1
  C  C2202  1  0.60341700  0.81220200  0.16070900  1
  C  C2203  1  0.39658300  0.81220200  0.83929100  1
  C  C2204  1  0.60341700  0.33929100  0.31220200  1
  C  C2205  1  0.39658300  0.66070900  0.31220200  1
  C  C2206  1  0.60341700  0.66070900  0.68779800  1
  C  C2207  1  0.39658300  0.33929100  0.68779800  1
  C  C2208  1  0.83929100  0.18779800  0.39658300  1
  C  C2209  1  0.16070900  0.18779800  0.60341700  1
  C  C2210  1  0.16070900  0.81220200  0.39658300  1
  C  C2211  1  0.83929100  0.81220200  0.60341700  1
  C  C2212  1  0.68779800  0.10341700  0.16070900  1
  C  C2213  1  0.68779800  0.89658300  0.83929100  1
  C  C2214  1  0.31220200  0.10341700  0.83929100  1
  C  C2215  1  0.31220200  0.89658300  0.16070900  1
  C  C2216  1  0.83929100  0.60341700  0.18779800  1
  C  C2217  1  0.16070900  0.39658300  0.18779800  1
  C  C2218  1  0.16070900  0.60341700  0.81220200  1
  C  C2219  1  0.83929100  0.39658300  0.81220200  1
  C  C2220  1  0.68779800  0.83929100  0.10341700  1
  C  C2221  1  0.68779800  0.16070900  0.89658300  1
  C  C2222  1  0.31220200  0.16070900  0.10341700  1
  C  C2223  1  0.31220200  0.83929100  0.89658300  1
  C  C2224  1  0.60341700  0.68779800  0.33929100  1
  C  C2225  1  0.39658300  0.68779800  0.66070900  1
  C  C2226  1  0.60341700  0.31220200  0.66070900  1
  C  C2227  1  0.39658300  0.31220200  0.33929100  1
  C  C2228  1  0.60341700  0.83929100  0.81220200  1
  C  C2229  1  0.39658300  0.16070900  0.81220200  1
  C  C2230  1  0.60341700  0.16070900  0.18779800  1
  C  C2231  1  0.39658300  0.83929100  0.18779800  1
  C  C2232  1  0.83929100  0.68779800  0.89658300  1
  C  C2233  1  0.16070900  0.68779800  0.10341700  1
  C  C2234  1  0.16070900  0.31220200  0.89658300  1
  C  C2235  1  0.83929100  0.31220200  0.10341700  1
  C  C2236  1  0.68779800  0.60341700  0.66070900  1
  C  C2237  1  0.68779800  0.39658300  0.33929100  1
  C  C2238  1  0.31220200  0.60341700  0.33929100  1
  C  C2239  1  0.31220200  0.39658300  0.66070900  1
  H  H2240  1  0.34830000  0.09370000  0.19540000  1
  H  H2241  1  0.65170000  0.90630000  0.19540000  1
  H  H2242  1  0.65170000  0.09370000  0.80460000  1
  H  H2243  1  0.34830000  0.90630000  0.80460000  1
  H  H2244  1  0.19540000  0.34830000  0.09370000  1
  H  H2245  1  0.19540000  0.65170000  0.90630000  1
  H  H2246  1  0.80460000  0.65170000  0.09370000  1
  H  H2247  1  0.80460000  0.34830000  0.90630000  1
  H  H2248  1  0.09370000  0.19540000  0.34830000  1
  H  H2249  1  0.90630000  0.19540000  0.65170000  1
  H  H2250  1  0.09370000  0.80460000  0.65170000  1
  H  H2251  1  0.90630000  0.80460000  0.34830000  1
  H  H2252  1  0.09370000  0.34830000  0.80460000  1
  H  H2253  1  0.90630000  0.65170000  0.80460000  1
  H  H2254  1  0.09370000  0.65170000  0.19540000  1
  H  H2255  1  0.90630000  0.34830000  0.19540000  1
  H  H2256  1  0.34830000  0.19540000  0.90630000  1
  H  H2257  1  0.65170000  0.19540000  0.09370000  1
  H  H2258  1  0.65170000  0.80460000  0.90630000  1
  H  H2259  1  0.34830000  0.80460000  0.09370000  1
  H  H2260  1  0.19540000  0.09370000  0.65170000  1
  H  H2261  1  0.19540000  0.90630000  0.34830000  1
  H  H2262  1  0.80460000  0.09370000  0.34830000  1
  H  H2263  1  0.80460000  0.90630000  0.65170000  1
  H  H2264  1  0.34830000  0.59370000  0.69540000  1
  H  H2265  1  0.65170000  0.40630000  0.69540000  1
  H  H2266  1  0.65170000  0.59370000  0.30460000  1
  H  H2267  1  0.34830000  0.40630000  0.30460000  1
  H  H2268  1  0.19540000  0.84830000  0.59370000  1
  H  H2269  1  0.19540000  0.15170000  0.40630000  1
  H  H2270  1  0.80460000  0.15170000  0.59370000  1
  H  H2271  1  0.80460000  0.84830000  0.40630000  1
  H  H2272  1  0.09370000  0.69540000  0.84830000  1
  H  H2273  1  0.90630000  0.69540000  0.15170000  1
  H  H2274  1  0.09370000  0.30460000  0.15170000  1
  H  H2275  1  0.90630000  0.30460000  0.84830000  1
  H  H2276  1  0.09370000  0.84830000  0.30460000  1
  H  H2277  1  0.90630000  0.15170000  0.30460000  1
  H  H2278  1  0.09370000  0.15170000  0.69540000  1
  H  H2279  1  0.90630000  0.84830000  0.69540000  1
  H  H2280  1  0.34830000  0.69540000  0.40630000  1
  H  H2281  1  0.65170000  0.69540000  0.59370000  1
  H  H2282  1  0.65170000  0.30460000  0.40630000  1
  H  H2283  1  0.34830000  0.30460000  0.59370000  1
  H  H2284  1  0.19540000  0.59370000  0.15170000  1
  H  H2285  1  0.19540000  0.40630000  0.84830000  1
  H  H2286  1  0.80460000  0.59370000  0.84830000  1
  H  H2287  1  0.80460000  0.40630000  0.15170000  1
  H  H2288  1  0.84830000  0.09370000  0.69540000  1
  H  H2289  1  0.15170000  0.90630000  0.69540000  1
  H  H2290  1  0.15170000  0.09370000  0.30460000  1
  H  H2291  1  0.84830000  0.90630000  0.30460000  1
  H  H2292  1  0.69540000  0.34830000  0.59370000  1
  H  H2293  1  0.69540000  0.65170000  0.40630000  1
  H  H2294  1  0.30460000  0.65170000  0.59370000  1
  H  H2295  1  0.30460000  0.34830000  0.40630000  1
  H  H2296  1  0.59370000  0.19540000  0.84830000  1
  H  H2297  1  0.40630000  0.19540000  0.15170000  1
  H  H2298  1  0.59370000  0.80460000  0.15170000  1
  H  H2299  1  0.40630000  0.80460000  0.84830000  1
  H  H2300  1  0.59370000  0.34830000  0.30460000  1
  H  H2301  1  0.40630000  0.65170000  0.30460000  1
  H  H2302  1  0.59370000  0.65170000  0.69540000  1
  H  H2303  1  0.40630000  0.34830000  0.69540000  1
  H  H2304  1  0.84830000  0.19540000  0.40630000  1
  H  H2305  1  0.15170000  0.19540000  0.59370000  1
  H  H2306  1  0.15170000  0.80460000  0.40630000  1
  H  H2307  1  0.84830000  0.80460000  0.59370000  1
  H  H2308  1  0.69540000  0.09370000  0.15170000  1
  H  H2309  1  0.69540000  0.90630000  0.84830000  1
  H  H2310  1  0.30460000  0.09370000  0.84830000  1
  H  H2311  1  0.30460000  0.90630000  0.15170000  1
  H  H2312  1  0.84830000  0.59370000  0.19540000  1
  H  H2313  1  0.15170000  0.40630000  0.19540000  1
  H  H2314  1  0.15170000  0.59370000  0.80460000  1
  H  H2315  1  0.84830000  0.40630000  0.80460000  1
  H  H2316  1  0.69540000  0.84830000  0.09370000  1
  H  H2317  1  0.69540000  0.15170000  0.90630000  1
  H  H2318  1  0.30460000  0.15170000  0.09370000  1
  H  H2319  1  0.30460000  0.84830000  0.90630000  1
  H  H2320  1  0.59370000  0.69540000  0.34830000  1
  H  H2321  1  0.40630000  0.69540000  0.65170000  1
  H  H2322  1  0.59370000  0.30460000  0.65170000  1
  H  H2323  1  0.40630000  0.30460000  0.34830000  1
  H  H2324  1  0.59370000  0.84830000  0.80460000  1
  H  H2325  1  0.40630000  0.15170000  0.80460000  1
  H  H2326  1  0.59370000  0.15170000  0.19540000  1
  H  H2327  1  0.40630000  0.84830000  0.19540000  1
  H  H2328  1  0.84830000  0.69540000  0.90630000  1
  H  H2329  1  0.15170000  0.69540000  0.09370000  1
  H  H2330  1  0.15170000  0.30460000  0.90630000  1
  H  H2331  1  0.84830000  0.30460000  0.09370000  1
  H  H2332  1  0.69540000  0.59370000  0.65170000  1
  H  H2333  1  0.69540000  0.40630000  0.34830000  1
  H  H2334  1  0.30460000  0.59370000  0.34830000  1
  H  H2335  1  0.30460000  0.40630000  0.65170000  1
