# generated using pymatgen
data_CuH16C28N2O5
_symmetry_space_group_name_H-M   'P 1'
_cell_length_a   39.70730000
_cell_length_b   39.70730000
_cell_length_c   38.34250000
_cell_angle_alpha   90.00000000
_cell_angle_beta   90.00000000
_cell_angle_gamma   90.00000000
_symmetry_Int_Tables_number   1
_chemical_formula_structural   CuH16C28N2O5
_chemical_formula_sum   'Cu24 H384 C672 N48 O120'
_cell_volume   60453.45694812
_cell_formula_units_Z   24
loop_
 _symmetry_equiv_pos_site_id
 _symmetry_equiv_pos_as_xyz
  1  'x, y, z'
loop_
 _atom_site_type_symbol
 _atom_site_label
 _atom_site_symmetry_multiplicity
 _atom_site_fract_x
 _atom_site_fract_y
 _atom_site_fract_z
 _atom_site_occupancy
  Cu  Cu0  1  0.25000000  0.25000000  0.04678500  1
  Cu  Cu1  1  0.25000000  0.25000000  0.54678500  1
  Cu  Cu2  1  0.75000000  0.75000000  0.95321500  1
  Cu  Cu3  1  0.75000000  0.75000000  0.45321500  1
  Cu  Cu4  1  0.25000000  0.25000000  0.11629500  1
  Cu  Cu5  1  0.25000000  0.25000000  0.61629500  1
  Cu  Cu6  1  0.75000000  0.75000000  0.88370500  1
  Cu  Cu7  1  0.75000000  0.75000000  0.38370500  1
  Cu  Cu8  1  0.46040000  0.74999700  0.31622400  1
  Cu  Cu9  1  0.03960000  0.75000300  0.31622400  1
  Cu  Cu10  1  0.75000300  0.46040000  0.81622400  1
  Cu  Cu11  1  0.74999700  0.03960000  0.81622400  1
  Cu  Cu12  1  0.53960000  0.24999700  0.68377600  1
  Cu  Cu13  1  0.96040000  0.25000300  0.68377600  1
  Cu  Cu14  1  0.24999700  0.96040000  0.18377600  1
  Cu  Cu15  1  0.25000300  0.53960000  0.18377600  1
  Cu  Cu16  1  0.52750000  0.74999600  0.31846400  1
  Cu  Cu17  1  0.97250000  0.75000400  0.31846400  1
  Cu  Cu18  1  0.75000400  0.52750000  0.81846400  1
  Cu  Cu19  1  0.74999600  0.97250000  0.81846400  1
  Cu  Cu20  1  0.47250000  0.24999600  0.68153600  1
  Cu  Cu21  1  0.02750000  0.25000400  0.68153600  1
  Cu  Cu22  1  0.24999600  0.02750000  0.18153600  1
  Cu  Cu23  1  0.25000400  0.47250000  0.18153600  1
  O  O24  1  0.28422000  0.21512000  0.05177170  1
  O  O25  1  0.21578000  0.28488000  0.05177170  1
  O  O26  1  0.28488000  0.28422000  0.55177170  1
  O  O27  1  0.21512000  0.21578000  0.55177170  1
  O  O28  1  0.71578000  0.71512000  0.94822830  1
  O  O29  1  0.78422000  0.78488000  0.94822830  1
  O  O30  1  0.71512000  0.78422000  0.44822830  1
  O  O31  1  0.78488000  0.71578000  0.44822830  1
  O  O32  1  0.71578000  0.78488000  0.94822830  1
  O  O33  1  0.78422000  0.71512000  0.94822830  1
  O  O34  1  0.71512000  0.71578000  0.44822830  1
  O  O35  1  0.78488000  0.78422000  0.44822830  1
  O  O36  1  0.28422000  0.28488000  0.05177170  1
  O  O37  1  0.21578000  0.21512000  0.05177170  1
  O  O38  1  0.28488000  0.21578000  0.55177170  1
  O  O39  1  0.21512000  0.28422000  0.55177170  1
  O  O40  1  0.28479160  0.21529160  0.10907160  1
  O  O41  1  0.21520840  0.28470840  0.10907160  1
  O  O42  1  0.28470840  0.28479160  0.60907160  1
  O  O43  1  0.21529160  0.21520840  0.60907160  1
  O  O44  1  0.71520840  0.71529160  0.89092840  1
  O  O45  1  0.78479160  0.78470840  0.89092840  1
  O  O46  1  0.71529160  0.78479160  0.39092840  1
  O  O47  1  0.78470840  0.71520840  0.39092840  1
  O  O48  1  0.71520840  0.78470840  0.89092840  1
  O  O49  1  0.78479160  0.71529160  0.89092840  1
  O  O50  1  0.71529160  0.71520840  0.39092840  1
  O  O51  1  0.78470840  0.78479160  0.39092840  1
  O  O52  1  0.28479160  0.28470840  0.10907160  1
  O  O53  1  0.21520840  0.21529160  0.10907160  1
  O  O54  1  0.28470840  0.21520840  0.60907160  1
  O  O55  1  0.21529160  0.28479160  0.60907160  1
  O  O56  1  0.46647160  0.78403830  0.28049150  1
  O  O57  1  0.03352840  0.71596170  0.28049150  1
  O  O58  1  0.71596170  0.46647160  0.78049150  1
  O  O59  1  0.78403830  0.03352840  0.78049150  1
  O  O60  1  0.53352840  0.28403830  0.71950850  1
  O  O61  1  0.96647160  0.21596170  0.71950850  1
  O  O62  1  0.28403830  0.96647160  0.21950850  1
  O  O63  1  0.21596170  0.53352840  0.21950850  1
  O  O64  1  0.53352840  0.21596170  0.71950850  1
  O  O65  1  0.96647160  0.28403830  0.71950850  1
  O  O66  1  0.28403830  0.53352840  0.21950850  1
  O  O67  1  0.21596170  0.96647160  0.21950850  1
  O  O68  1  0.46647160  0.71596170  0.28049150  1
  O  O69  1  0.03352840  0.78403830  0.28049150  1
  O  O70  1  0.71596170  0.03352840  0.78049150  1
  O  O71  1  0.78403830  0.46647160  0.78049150  1
  O  O72  1  0.52411170  0.78444830  0.28197140  1
  O  O73  1  0.97588830  0.71555170  0.28197140  1
  O  O74  1  0.71555170  0.52411170  0.78197140  1
  O  O75  1  0.78444830  0.97588830  0.78197140  1
  O  O76  1  0.47588830  0.28444830  0.71802860  1
  O  O77  1  0.02411170  0.21555170  0.71802860  1
  O  O78  1  0.28444830  0.02411170  0.21802860  1
  O  O79  1  0.21555170  0.47588830  0.21802860  1
  O  O80  1  0.47588830  0.21555170  0.71802860  1
  O  O81  1  0.02411170  0.28444830  0.71802860  1
  O  O82  1  0.28444830  0.47588830  0.21802860  1
  O  O83  1  0.21555170  0.02411170  0.21802860  1
  O  O84  1  0.52411170  0.71555170  0.28197140  1
  O  O85  1  0.97588830  0.78444830  0.28197140  1
  O  O86  1  0.71555170  0.97588830  0.78197140  1
  O  O87  1  0.78444830  0.52411170  0.78197140  1
  O  O88  1  0.71561180  0.98084830  0.85466840  1
  O  O89  1  0.78438820  0.51915170  0.85466840  1
  O  O90  1  0.51915170  0.71561180  0.35466840  1
  O  O91  1  0.98084830  0.78438820  0.35466840  1
  O  O92  1  0.28438820  0.48084830  0.14533160  1
  O  O93  1  0.21561180  0.01915170  0.14533160  1
  O  O94  1  0.48084830  0.21561180  0.64533160  1
  O  O95  1  0.01915170  0.28438820  0.64533160  1
  O  O96  1  0.28438820  0.01915170  0.14533160  1
  O  O97  1  0.21561180  0.48084830  0.14533160  1
  O  O98  1  0.48084830  0.28438820  0.64533160  1
  O  O99  1  0.01915170  0.21561180  0.64533160  1
  O  O100  1  0.71561180  0.51915170  0.85466840  1
  O  O101  1  0.78438820  0.98084830  0.85466840  1
  O  O102  1  0.51915170  0.78438820  0.35466840  1
  O  O103  1  0.98084830  0.71561180  0.35466840  1
  O  O104  1  0.71552000  0.03486190  0.85218000  1
  O  O105  1  0.78448000  0.46513810  0.85218000  1
  O  O106  1  0.46513810  0.71552000  0.35218000  1
  O  O107  1  0.03486190  0.78448000  0.35218000  1
  O  O108  1  0.28448000  0.53486190  0.14782000  1
  O  O109  1  0.21552000  0.96513810  0.14782000  1
  O  O110  1  0.53486190  0.21552000  0.64782000  1
  O  O111  1  0.96513810  0.28448000  0.64782000  1
  O  O112  1  0.28448000  0.96513810  0.14782000  1
  O  O113  1  0.21552000  0.53486190  0.14782000  1
  O  O114  1  0.53486190  0.28448000  0.64782000  1
  O  O115  1  0.96513810  0.21552000  0.64782000  1
  O  O116  1  0.71552000  0.46513810  0.85218000  1
  O  O117  1  0.78448000  0.03486190  0.85218000  1
  O  O118  1  0.46513810  0.78448000  0.35218000  1
  O  O119  1  0.03486190  0.71552000  0.35218000  1
  N  N144  1  0.50063000  0.03282000  0.04793000  1
  N  N145  1  0.00000000  0.46718000  0.04793000  1
  N  N146  1  0.46718000  0.50063000  0.54793000  1
  N  N147  1  0.03282000  0.00000000  0.54793000  1
  N  N148  1  0.49937000  0.53282000  0.95207000  1
  N  N149  1  0.00063000  0.96718000  0.95207000  1
  N  N150  1  0.53282000  0.00063000  0.45207000  1
  N  N151  1  0.96718000  0.49937000  0.45207000  1
  N  N152  1  0.49937000  0.96718000  0.95207000  1
  N  N153  1  0.00063000  0.53282000  0.95207000  1
  N  N154  1  0.53282000  0.49937000  0.45207000  1
  N  N155  1  0.96718000  0.00063000  0.45207000  1
  N  N156  1  0.50063000  0.46718000  0.04793000  1
  N  N157  1  0.00000000  0.03282000  0.04793000  1
  N  N158  1  0.46718000  0.00000000  0.54793000  1
  N  N159  1  0.03282000  0.50063000  0.54793000  1
  N  N160  1  0.47713000  0.00483000  0.09732000  1
  N  N161  1  0.02287000  0.49517000  0.09732000  1
  N  N162  1  0.49517000  0.47713000  0.59732000  1
  N  N163  1  0.00483000  0.02287000  0.59732000  1
  N  N164  1  0.52287000  0.50483000  0.90268000  1
  N  N165  1  0.97713000  0.00000000  0.90268000  1
  N  N166  1  0.50483000  0.97713000  0.40268000  1
  N  N167  1  0.00000000  0.52287000  0.40268000  1
  N  N168  1  0.52287000  0.00000000  0.90268000  1
  N  N169  1  0.97713000  0.50483000  0.90268000  1
  N  N170  1  0.50483000  0.52287000  0.40268000  1
  N  N171  1  0.00000000  0.97713000  0.40268000  1
  N  N172  1  0.47713000  0.49517000  0.09732000  1
  N  N173  1  0.02287000  0.00483000  0.09732000  1
  N  N174  1  0.49517000  0.02287000  0.59732000  1
  N  N175  1  0.00483000  0.47713000  0.59732000  1
  N  N176  1  0.52413000  0.98097000  0.06943000  1
  N  N177  1  0.97587000  0.51903000  0.06943000  1
  N  N178  1  0.51903000  0.52413000  0.56943000  1
  N  N179  1  0.98097000  0.97587000  0.56943000  1
  N  N180  1  0.47587000  0.48097000  0.93057000  1
  N  N181  1  0.02413000  0.01903000  0.93057000  1
  N  N182  1  0.48097000  0.02413000  0.43057000  1
  N  N183  1  0.01903000  0.47587000  0.43057000  1
  N  N184  1  0.47587000  0.01903000  0.93057000  1
  N  N185  1  0.02413000  0.48097000  0.93057000  1
  N  N186  1  0.48097000  0.47587000  0.43057000  1
  N  N187  1  0.01903000  0.02413000  0.43057000  1
  N  N188  1  0.52413000  0.51903000  0.06943000  1
  N  N189  1  0.97587000  0.98097000  0.06943000  1
  N  N190  1  0.51903000  0.97587000  0.56943000  1
  N  N191  1  0.98097000  0.52413000  0.56943000  1
  C  C192  1  0.47823000  0.03043000  0.07424000  1
  C  C193  1  0.02177000  0.46957000  0.07424000  1
  C  C194  1  0.46957000  0.47823000  0.57424000  1
  C  C195  1  0.03043000  0.02177000  0.57424000  1
  C  C196  1  0.52177000  0.53043000  0.92576000  1
  C  C197  1  0.97823000  0.96957000  0.92576000  1
  C  C198  1  0.53043000  0.97823000  0.42576000  1
  C  C199  1  0.96957000  0.52177000  0.42576000  1
  C  C200  1  0.52177000  0.96957000  0.92576000  1
  C  C201  1  0.97823000  0.53043000  0.92576000  1
  C  C202  1  0.53043000  0.52177000  0.42576000  1
  C  C203  1  0.96957000  0.97823000  0.42576000  1
  C  C204  1  0.47823000  0.46957000  0.07424000  1
  C  C205  1  0.02177000  0.03043000  0.07424000  1
  C  C206  1  0.46957000  0.02177000  0.57424000  1
  C  C207  1  0.03043000  0.47823000  0.57424000  1
  C  C208  1  0.50073000  0.98017000  0.09463000  1
  C  C209  1  0.00000000  0.51983000  0.09463000  1
  C  C210  1  0.51983000  0.50073000  0.59463000  1
  C  C211  1  0.98017000  0.00000000  0.59463000  1
  C  C212  1  0.49927000  0.48017000  0.90537000  1
  C  C213  1  0.00073000  0.01983000  0.90537000  1
  C  C214  1  0.48017000  0.00073000  0.40537000  1
  C  C215  1  0.01983000  0.49927000  0.40537000  1
  C  C216  1  0.49927000  0.01983000  0.90537000  1
  C  C217  1  0.00073000  0.48017000  0.90537000  1
  C  C218  1  0.48017000  0.49927000  0.40537000  1
  C  C219  1  0.01983000  0.00073000  0.40537000  1
  C  C220  1  0.50073000  0.51983000  0.09463000  1
  C  C221  1  0.00000000  0.98017000  0.09463000  1
  C  C222  1  0.51983000  0.00000000  0.59463000  1
  C  C223  1  0.98017000  0.50073000  0.59463000  1
  C  C224  1  0.52303000  0.00754000  0.04723000  1
  C  C225  1  0.97697000  0.49246000  0.04723000  1
  C  C226  1  0.49246000  0.52303000  0.54723000  1
  C  C227  1  0.00754000  0.97697000  0.54723000  1
  C  C228  1  0.47697000  0.50754000  0.95277000  1
  C  C229  1  0.02303000  0.99246000  0.95277000  1
  C  C230  1  0.50754000  0.02303000  0.45277000  1
  C  C231  1  0.99246000  0.47697000  0.45277000  1
  C  C232  1  0.47697000  0.99246000  0.95277000  1
  C  C233  1  0.02303000  0.50754000  0.95277000  1
  C  C234  1  0.50754000  0.47697000  0.45277000  1
  C  C235  1  0.99246000  0.02303000  0.45277000  1
  C  C236  1  0.52303000  0.49246000  0.04723000  1
  C  C237  1  0.97697000  0.00754000  0.04723000  1
  C  C238  1  0.49246000  0.97697000  0.54723000  1
  C  C239  1  0.00754000  0.52303000  0.54723000  1
  C  C240  1  0.45274000  0.05754000  0.07547000  1
  C  C241  1  0.04726000  0.44246000  0.07547000  1
  C  C242  1  0.44246000  0.45274000  0.57547000  1
  C  C243  1  0.05754000  0.04726000  0.57547000  1
  C  C244  1  0.54726000  0.55754000  0.92453000  1
  C  C245  1  0.95274000  0.94246000  0.92453000  1
  C  C246  1  0.55754000  0.95274000  0.42453000  1
  C  C247  1  0.94246000  0.54726000  0.42453000  1
  C  C248  1  0.54726000  0.94246000  0.92453000  1
  C  C249  1  0.95274000  0.55754000  0.92453000  1
  C  C250  1  0.55754000  0.54726000  0.42453000  1
  C  C251  1  0.94246000  0.95274000  0.42453000  1
  C  C252  1  0.45274000  0.44246000  0.07547000  1
  C  C253  1  0.04726000  0.05754000  0.07547000  1
  C  C254  1  0.44246000  0.04726000  0.57547000  1
  C  C255  1  0.05754000  0.45274000  0.57547000  1
  C  C256  1  0.44925000  0.07846000  0.04714000  1
  C  C257  1  0.05075000  0.42154000  0.04714000  1
  C  C258  1  0.42154000  0.44925000  0.54714000  1
  C  C259  1  0.07846000  0.05075000  0.54714000  1
  C  C260  1  0.55075000  0.57846000  0.95286000  1
  C  C261  1  0.94925000  0.92154000  0.95286000  1
  C  C262  1  0.57846000  0.94925000  0.45286000  1
  C  C263  1  0.92154000  0.55075000  0.45286000  1
  C  C264  1  0.55075000  0.92154000  0.95286000  1
  C  C265  1  0.94925000  0.57846000  0.95286000  1
  C  C266  1  0.57846000  0.55075000  0.45286000  1
  C  C267  1  0.92154000  0.94925000  0.45286000  1
  C  C268  1  0.44925000  0.42154000  0.04714000  1
  C  C269  1  0.05075000  0.07846000  0.04714000  1
  C  C270  1  0.42154000  0.05075000  0.54714000  1
  C  C271  1  0.07846000  0.44925000  0.54714000  1
  H  H272  1  0.46340000  0.07640000  0.02790000  1
  H  H273  1  0.03660000  0.42360000  0.02790000  1
  H  H274  1  0.42360000  0.46340000  0.52790000  1
  H  H275  1  0.07640000  0.03660000  0.52790000  1
  H  H276  1  0.53660000  0.57640000  0.97210000  1
  H  H277  1  0.96340000  0.92360000  0.97210000  1
  H  H278  1  0.57640000  0.96340000  0.47210000  1
  H  H279  1  0.92360000  0.53660000  0.47210000  1
  H  H280  1  0.53660000  0.92360000  0.97210000  1
  H  H281  1  0.96340000  0.57640000  0.97210000  1
  H  H282  1  0.57640000  0.53660000  0.47210000  1
  H  H283  1  0.92360000  0.96340000  0.47210000  1
  H  H284  1  0.46340000  0.42360000  0.02790000  1
  H  H285  1  0.03660000  0.07640000  0.02790000  1
  H  H286  1  0.42360000  0.03660000  0.52790000  1
  H  H287  1  0.07640000  0.46340000  0.52790000  1
  C  C288  1  0.42425000  0.10245000  0.04815000  1
  C  C289  1  0.07575000  0.39755000  0.04815000  1
  C  C290  1  0.39755000  0.42425000  0.54815000  1
  C  C291  1  0.10245000  0.07575000  0.54815000  1
  C  C292  1  0.57575000  0.60245000  0.95185000  1
  C  C293  1  0.92425000  0.89755000  0.95185000  1
  C  C294  1  0.60245000  0.92425000  0.45185000  1
  C  C295  1  0.89755000  0.57575000  0.45185000  1
  C  C296  1  0.57575000  0.89755000  0.95185000  1
  C  C297  1  0.92425000  0.60245000  0.95185000  1
  C  C298  1  0.60245000  0.57575000  0.45185000  1
  C  C299  1  0.89755000  0.92425000  0.45185000  1
  C  C300  1  0.42425000  0.39755000  0.04815000  1
  C  C301  1  0.07575000  0.10245000  0.04815000  1
  C  C302  1  0.39755000  0.07575000  0.54815000  1
  C  C303  1  0.10245000  0.42425000  0.54815000  1
  H  H304  1  0.41970000  0.11540000  0.02850000  1
  H  H305  1  0.08030000  0.38460000  0.02850000  1
  H  H306  1  0.38460000  0.41970000  0.52850000  1
  H  H307  1  0.11540000  0.08030000  0.52850000  1
  H  H308  1  0.58030000  0.61540000  0.97150000  1
  H  H309  1  0.91970000  0.88460000  0.97150000  1
  H  H310  1  0.61540000  0.91970000  0.47150000  1
  H  H311  1  0.88460000  0.58030000  0.47150000  1
  H  H312  1  0.58030000  0.88460000  0.97150000  1
  H  H313  1  0.91970000  0.61540000  0.97150000  1
  H  H314  1  0.61540000  0.58030000  0.47150000  1
  H  H315  1  0.88460000  0.91970000  0.47150000  1
  H  H316  1  0.41970000  0.38460000  0.02850000  1
  H  H317  1  0.08030000  0.11540000  0.02850000  1
  H  H318  1  0.38460000  0.08030000  0.52850000  1
  H  H319  1  0.11540000  0.41970000  0.52850000  1
  C  C320  1  0.40614000  0.10694000  0.07817000  1
  C  C321  1  0.09386000  0.39306000  0.07817000  1
  C  C322  1  0.39306000  0.40614000  0.57817000  1
  C  C323  1  0.10694000  0.09386000  0.57817000  1
  C  C324  1  0.59386000  0.60694000  0.92183000  1
  C  C325  1  0.90614000  0.89306000  0.92183000  1
  C  C326  1  0.60694000  0.90614000  0.42183000  1
  C  C327  1  0.89306000  0.59386000  0.42183000  1
  C  C328  1  0.59386000  0.89306000  0.92183000  1
  C  C329  1  0.90614000  0.60694000  0.92183000  1
  C  C330  1  0.60694000  0.59386000  0.42183000  1
  C  C331  1  0.89306000  0.90614000  0.42183000  1
  C  C332  1  0.40614000  0.39306000  0.07817000  1
  C  C333  1  0.09386000  0.10694000  0.07817000  1
  C  C334  1  0.39306000  0.09386000  0.57817000  1
  C  C335  1  0.10694000  0.40614000  0.57817000  1
  C  C336  1  0.40894000  0.08486000  0.10664000  1
  C  C337  1  0.09106000  0.41514000  0.10664000  1
  C  C338  1  0.41514000  0.40894000  0.60664000  1
  C  C339  1  0.08486000  0.09106000  0.60664000  1
  C  C340  1  0.59106000  0.58486000  0.89336000  1
  C  C341  1  0.90894000  0.91514000  0.89336000  1
  C  C342  1  0.58486000  0.90894000  0.39336000  1
  C  C343  1  0.91514000  0.59106000  0.39336000  1
  C  C344  1  0.59106000  0.91514000  0.89336000  1
  C  C345  1  0.90894000  0.58486000  0.89336000  1
  C  C346  1  0.58486000  0.59106000  0.39336000  1
  C  C347  1  0.91514000  0.90894000  0.39336000  1
  C  C348  1  0.40894000  0.41514000  0.10664000  1
  C  C349  1  0.09106000  0.08486000  0.10664000  1
  C  C350  1  0.41514000  0.09106000  0.60664000  1
  C  C351  1  0.08486000  0.40894000  0.60664000  1
  H  H352  1  0.39460000  0.08640000  0.12580000  1
  H  H353  1  0.10540000  0.41360000  0.12580000  1
  H  H354  1  0.41360000  0.39460000  0.62580000  1
  H  H355  1  0.08640000  0.10540000  0.62580000  1
  H  H356  1  0.60540000  0.58640000  0.87420000  1
  H  H357  1  0.89460000  0.91360000  0.87420000  1
  H  H358  1  0.58640000  0.89460000  0.37420000  1
  H  H359  1  0.91360000  0.60540000  0.37420000  1
  H  H360  1  0.60540000  0.91360000  0.87420000  1
  H  H361  1  0.89460000  0.58640000  0.87420000  1
  H  H362  1  0.58640000  0.60540000  0.37420000  1
  H  H363  1  0.91360000  0.89460000  0.37420000  1
  H  H364  1  0.39460000  0.41360000  0.12580000  1
  H  H365  1  0.10540000  0.08640000  0.12580000  1
  H  H366  1  0.41360000  0.10540000  0.62580000  1
  H  H367  1  0.08640000  0.39460000  0.62580000  1
  C  C368  1  0.43335000  0.06104000  0.10534000  1
  C  C369  1  0.06665000  0.43896000  0.10534000  1
  C  C370  1  0.43896000  0.43335000  0.60534000  1
  C  C371  1  0.06104000  0.06665000  0.60534000  1
  C  C372  1  0.56665000  0.56104000  0.89466000  1
  C  C373  1  0.93335000  0.93896000  0.89466000  1
  C  C374  1  0.56104000  0.93335000  0.39466000  1
  C  C375  1  0.93896000  0.56665000  0.39466000  1
  C  C376  1  0.56665000  0.93896000  0.89466000  1
  C  C377  1  0.93335000  0.56104000  0.89466000  1
  C  C378  1  0.56104000  0.56665000  0.39466000  1
  C  C379  1  0.93896000  0.93335000  0.39466000  1
  C  C380  1  0.43335000  0.43896000  0.10534000  1
  C  C381  1  0.06665000  0.06104000  0.10534000  1
  C  C382  1  0.43896000  0.06665000  0.60534000  1
  C  C383  1  0.06104000  0.43335000  0.60534000  1
  H  H384  1  0.43710000  0.04710000  0.12430000  1
  H  H385  1  0.06290000  0.45290000  0.12430000  1
  H  H386  1  0.45290000  0.43710000  0.62430000  1
  H  H387  1  0.04710000  0.06290000  0.62430000  1
  H  H388  1  0.56290000  0.54710000  0.87570000  1
  H  H389  1  0.93710000  0.95290000  0.87570000  1
  H  H390  1  0.54710000  0.93710000  0.37570000  1
  H  H391  1  0.95290000  0.56290000  0.37570000  1
  H  H392  1  0.56290000  0.95290000  0.87570000  1
  H  H393  1  0.93710000  0.54710000  0.87570000  1
  H  H394  1  0.54710000  0.56290000  0.37570000  1
  H  H395  1  0.95290000  0.93710000  0.37570000  1
  H  H396  1  0.43710000  0.45290000  0.12430000  1
  H  H397  1  0.06290000  0.04710000  0.12430000  1
  H  H398  1  0.45290000  0.06290000  0.62430000  1
  H  H399  1  0.04710000  0.43710000  0.62430000  1
  C  C400  1  0.37755000  0.13214000  0.07654000  1
  C  C401  1  0.12245000  0.36786000  0.07654000  1
  C  C402  1  0.36786000  0.37755000  0.57654000  1
  C  C403  1  0.13214000  0.12245000  0.57654000  1
  C  C404  1  0.62245000  0.63214000  0.92346000  1
  C  C405  1  0.87755000  0.86786000  0.92346000  1
  C  C406  1  0.63214000  0.87755000  0.42346000  1
  C  C407  1  0.86786000  0.62245000  0.42346000  1
  C  C408  1  0.62245000  0.86786000  0.92346000  1
  C  C409  1  0.87755000  0.63214000  0.92346000  1
  C  C410  1  0.63214000  0.62245000  0.42346000  1
  C  C411  1  0.86786000  0.87755000  0.42346000  1
  C  C412  1  0.37755000  0.36786000  0.07654000  1
  C  C413  1  0.12245000  0.13214000  0.07654000  1
  C  C414  1  0.36786000  0.12245000  0.57654000  1
  C  C415  1  0.13214000  0.37755000  0.57654000  1
  C  C416  1  0.35814000  0.14334000  0.04684000  1
  C  C417  1  0.14186000  0.35666000  0.04684000  1
  C  C418  1  0.35666000  0.35814000  0.54684000  1
  C  C419  1  0.14334000  0.14186000  0.54684000  1
  C  C420  1  0.64186000  0.64334000  0.95316000  1
  C  C421  1  0.85814000  0.85666000  0.95316000  1
  C  C422  1  0.64334000  0.85814000  0.45316000  1
  C  C423  1  0.85666000  0.64186000  0.45316000  1
  C  C424  1  0.64186000  0.85666000  0.95316000  1
  C  C425  1  0.85814000  0.64334000  0.95316000  1
  C  C426  1  0.64334000  0.64186000  0.45316000  1
  C  C427  1  0.85666000  0.85814000  0.45316000  1
  C  C428  1  0.35814000  0.35666000  0.04684000  1
  C  C429  1  0.14186000  0.14334000  0.04684000  1
  C  C430  1  0.35666000  0.14186000  0.54684000  1
  C  C431  1  0.14334000  0.35814000  0.54684000  1
  H  H432  1  0.36300000  0.13430000  0.02490000  1
  H  H433  1  0.13700000  0.36570000  0.02490000  1
  H  H434  1  0.36570000  0.36300000  0.52490000  1
  H  H435  1  0.13430000  0.13700000  0.52490000  1
  H  H436  1  0.63700000  0.63430000  0.97510000  1
  H  H437  1  0.86300000  0.86570000  0.97510000  1
  H  H438  1  0.63430000  0.86300000  0.47510000  1
  H  H439  1  0.86570000  0.63700000  0.47510000  1
  H  H440  1  0.63700000  0.86570000  0.97510000  1
  H  H441  1  0.86300000  0.63430000  0.97510000  1
  H  H442  1  0.63430000  0.63700000  0.47510000  1
  H  H443  1  0.86570000  0.86300000  0.47510000  1
  H  H444  1  0.36300000  0.36570000  0.02490000  1
  H  H445  1  0.13700000  0.13430000  0.02490000  1
  H  H446  1  0.36570000  0.13700000  0.52490000  1
  H  H447  1  0.13430000  0.36300000  0.52490000  1
  C  C448  1  0.33164000  0.16754000  0.04975000  1
  C  C449  1  0.16836000  0.33246000  0.04975000  1
  C  C450  1  0.33246000  0.33164000  0.54975000  1
  C  C451  1  0.16754000  0.16836000  0.54975000  1
  C  C452  1  0.66836000  0.66754000  0.95025000  1
  C  C453  1  0.83164000  0.83246000  0.95025000  1
  C  C454  1  0.66754000  0.83164000  0.45025000  1
  C  C455  1  0.83246000  0.66836000  0.45025000  1
  C  C456  1  0.66836000  0.83246000  0.95025000  1
  C  C457  1  0.83164000  0.66754000  0.95025000  1
  C  C458  1  0.66754000  0.66836000  0.45025000  1
  C  C459  1  0.83246000  0.83164000  0.45025000  1
  C  C460  1  0.33164000  0.33246000  0.04975000  1
  C  C461  1  0.16836000  0.16754000  0.04975000  1
  C  C462  1  0.33246000  0.16836000  0.54975000  1
  C  C463  1  0.16754000  0.33164000  0.54975000  1
  H  H464  1  0.32000000  0.17470000  0.02990000  1
  H  H465  1  0.18000000  0.32530000  0.02990000  1
  H  H466  1  0.32530000  0.32000000  0.52990000  1
  H  H467  1  0.17470000  0.18000000  0.52990000  1
  H  H468  1  0.68000000  0.67470000  0.97010000  1
  H  H469  1  0.82000000  0.82530000  0.97010000  1
  H  H470  1  0.67470000  0.82000000  0.47010000  1
  H  H471  1  0.82530000  0.68000000  0.47010000  1
  H  H472  1  0.68000000  0.82530000  0.97010000  1
  H  H473  1  0.82000000  0.67470000  0.97010000  1
  H  H474  1  0.67470000  0.68000000  0.47010000  1
  H  H475  1  0.82530000  0.82000000  0.47010000  1
  H  H476  1  0.32000000  0.32530000  0.02990000  1
  H  H477  1  0.18000000  0.17470000  0.02990000  1
  H  H478  1  0.32530000  0.18000000  0.52990000  1
  H  H479  1  0.17470000  0.32000000  0.52990000  1
  C  C480  1  0.32353000  0.18023000  0.08205000  1
  C  C481  1  0.17647000  0.31977000  0.08205000  1
  C  C482  1  0.31977000  0.32353000  0.58205000  1
  C  C483  1  0.18023000  0.17647000  0.58205000  1
  C  C484  1  0.67647000  0.68023000  0.91795000  1
  C  C485  1  0.82353000  0.81977000  0.91795000  1
  C  C486  1  0.68023000  0.82353000  0.41795000  1
  C  C487  1  0.81977000  0.67647000  0.41795000  1
  C  C488  1  0.67647000  0.81977000  0.91795000  1
  C  C489  1  0.82353000  0.68023000  0.91795000  1
  C  C490  1  0.68023000  0.67647000  0.41795000  1
  C  C491  1  0.81977000  0.82353000  0.41795000  1
  C  C492  1  0.32353000  0.31977000  0.08205000  1
  C  C493  1  0.17647000  0.18023000  0.08205000  1
  C  C494  1  0.31977000  0.17647000  0.58205000  1
  C  C495  1  0.18023000  0.32353000  0.58205000  1
  C  C496  1  0.34155000  0.16865000  0.11053000  1
  C  C497  1  0.15845000  0.33135000  0.11053000  1
  C  C498  1  0.33135000  0.34155000  0.61053000  1
  C  C499  1  0.16865000  0.15845000  0.61053000  1
  C  C500  1  0.65845000  0.66865000  0.88947000  1
  C  C501  1  0.84155000  0.83135000  0.88947000  1
  C  C502  1  0.66865000  0.84155000  0.38947000  1
  C  C503  1  0.83135000  0.65845000  0.38947000  1
  C  C504  1  0.65845000  0.83135000  0.88947000  1
  C  C505  1  0.84155000  0.66865000  0.88947000  1
  C  C506  1  0.66865000  0.65845000  0.38947000  1
  C  C507  1  0.83135000  0.84155000  0.38947000  1
  C  C508  1  0.34155000  0.33135000  0.11053000  1
  C  C509  1  0.15845000  0.16865000  0.11053000  1
  C  C510  1  0.33135000  0.15845000  0.61053000  1
  C  C511  1  0.16865000  0.34155000  0.61053000  1
  H  H512  1  0.33630000  0.17680000  0.13260000  1
  H  H513  1  0.16370000  0.32320000  0.13260000  1
  H  H514  1  0.32320000  0.33630000  0.63260000  1
  H  H515  1  0.17680000  0.16370000  0.63260000  1
  H  H516  1  0.66370000  0.67680000  0.86740000  1
  H  H517  1  0.83630000  0.82320000  0.86740000  1
  H  H518  1  0.67680000  0.83630000  0.36740000  1
  H  H519  1  0.82320000  0.66370000  0.36740000  1
  H  H520  1  0.66370000  0.82320000  0.86740000  1
  H  H521  1  0.83630000  0.67680000  0.86740000  1
  H  H522  1  0.67680000  0.66370000  0.36740000  1
  H  H523  1  0.82320000  0.83630000  0.36740000  1
  H  H524  1  0.33630000  0.32320000  0.13260000  1
  H  H525  1  0.16370000  0.17680000  0.13260000  1
  H  H526  1  0.32320000  0.16370000  0.63260000  1
  H  H527  1  0.17680000  0.33630000  0.63260000  1
  C  C528  1  0.36764000  0.14464000  0.10725000  1
  C  C529  1  0.13236000  0.35536000  0.10725000  1
  C  C530  1  0.35536000  0.36764000  0.60725000  1
  C  C531  1  0.14464000  0.13236000  0.60725000  1
  C  C532  1  0.63236000  0.64464000  0.89275000  1
  C  C533  1  0.86764000  0.85536000  0.89275000  1
  C  C534  1  0.64464000  0.86764000  0.39275000  1
  C  C535  1  0.85536000  0.63236000  0.39275000  1
  C  C536  1  0.63236000  0.85536000  0.89275000  1
  C  C537  1  0.86764000  0.64464000  0.89275000  1
  C  C538  1  0.64464000  0.63236000  0.39275000  1
  C  C539  1  0.85536000  0.86764000  0.39275000  1
  C  C540  1  0.36764000  0.35536000  0.10725000  1
  C  C541  1  0.13236000  0.14464000  0.10725000  1
  C  C542  1  0.35536000  0.13236000  0.60725000  1
  C  C543  1  0.14464000  0.36764000  0.60725000  1
  H  H544  1  0.37830000  0.13710000  0.12730000  1
  H  H545  1  0.12170000  0.36290000  0.12730000  1
  H  H546  1  0.36290000  0.37830000  0.62730000  1
  H  H547  1  0.13710000  0.12170000  0.62730000  1
  H  H548  1  0.62170000  0.63710000  0.87270000  1
  H  H549  1  0.87830000  0.86290000  0.87270000  1
  H  H550  1  0.63710000  0.87830000  0.37270000  1
  H  H551  1  0.86290000  0.62170000  0.37270000  1
  H  H552  1  0.62170000  0.86290000  0.87270000  1
  H  H553  1  0.87830000  0.63710000  0.87270000  1
  H  H554  1  0.63710000  0.62170000  0.37270000  1
  H  H555  1  0.86290000  0.87830000  0.37270000  1
  H  H556  1  0.37830000  0.36290000  0.12730000  1
  H  H557  1  0.12170000  0.13710000  0.12730000  1
  H  H558  1  0.36290000  0.12170000  0.62730000  1
  H  H559  1  0.13710000  0.37830000  0.62730000  1
  C  C560  1  0.29413000  0.20493000  0.07883000  1
  C  C561  1  0.20587000  0.29507000  0.07883000  1
  C  C562  1  0.29507000  0.29413000  0.57883000  1
  C  C563  1  0.20493000  0.20587000  0.57883000  1
  C  C564  1  0.70587000  0.70493000  0.92117000  1
  C  C565  1  0.79413000  0.79507000  0.92117000  1
  C  C566  1  0.70493000  0.79413000  0.42117000  1
  C  C567  1  0.79507000  0.70587000  0.42117000  1
  C  C568  1  0.70587000  0.79507000  0.92117000  1
  C  C569  1  0.79413000  0.70493000  0.92117000  1
  C  C570  1  0.70493000  0.70587000  0.42117000  1
  C  C571  1  0.79507000  0.79413000  0.42117000  1
  C  C572  1  0.29413000  0.29507000  0.07883000  1
  C  C573  1  0.20587000  0.20493000  0.07883000  1
  C  C574  1  0.29507000  0.20587000  0.57883000  1
  C  C575  1  0.20493000  0.29413000  0.57883000  1
  C  C576  1  0.50047000  0.95266000  0.12014000  1
  C  C577  1  0.00000000  0.54734000  0.12014000  1
  C  C578  1  0.54734000  0.50047000  0.62014000  1
  C  C579  1  0.95266000  0.00000000  0.62014000  1
  C  C580  1  0.49953000  0.45266000  0.87986000  1
  C  C581  1  0.00047000  0.04734000  0.87986000  1
  C  C582  1  0.45266000  0.00047000  0.37986000  1
  C  C583  1  0.04734000  0.49953000  0.37986000  1
  C  C584  1  0.49953000  0.04734000  0.87986000  1
  C  C585  1  0.00047000  0.45266000  0.87986000  1
  C  C586  1  0.45266000  0.49953000  0.37986000  1
  C  C587  1  0.04734000  0.00047000  0.37986000  1
  C  C588  1  0.50047000  0.54734000  0.12014000  1
  C  C589  1  0.00000000  0.95266000  0.12014000  1
  C  C590  1  0.54734000  0.00000000  0.62014000  1
  C  C591  1  0.95266000  0.50047000  0.62014000  1
  C  C592  1  0.47323000  0.94935000  0.14346000  1
  C  C593  1  0.02677000  0.55065000  0.14346000  1
  C  C594  1  0.55065000  0.47323000  0.64346000  1
  C  C595  1  0.94935000  0.02677000  0.64346000  1
  C  C596  1  0.52677000  0.44935000  0.85654000  1
  C  C597  1  0.97323000  0.05065000  0.85654000  1
  C  C598  1  0.44935000  0.97323000  0.35654000  1
  C  C599  1  0.05065000  0.52677000  0.35654000  1
  C  C600  1  0.52677000  0.05065000  0.85654000  1
  C  C601  1  0.97323000  0.44935000  0.85654000  1
  C  C602  1  0.44935000  0.52677000  0.35654000  1
  C  C603  1  0.05065000  0.97323000  0.35654000  1
  C  C604  1  0.47323000  0.55065000  0.14346000  1
  C  C605  1  0.02677000  0.94935000  0.14346000  1
  C  C606  1  0.55065000  0.02677000  0.64346000  1
  C  C607  1  0.94935000  0.47323000  0.64346000  1
  H  H608  1  0.45560000  0.96480000  0.14230000  1
  H  H609  1  0.04440000  0.53520000  0.14230000  1
  H  H610  1  0.53520000  0.45560000  0.64230000  1
  H  H611  1  0.96480000  0.04440000  0.64230000  1
  H  H612  1  0.54440000  0.46480000  0.85770000  1
  H  H613  1  0.95560000  0.03520000  0.85770000  1
  H  H614  1  0.46480000  0.95560000  0.35770000  1
  H  H615  1  0.03520000  0.54440000  0.35770000  1
  H  H616  1  0.54440000  0.03520000  0.85770000  1
  H  H617  1  0.95560000  0.46480000  0.85770000  1
  H  H618  1  0.46480000  0.54440000  0.35770000  1
  H  H619  1  0.03520000  0.95560000  0.35770000  1
  H  H620  1  0.45560000  0.53520000  0.14230000  1
  H  H621  1  0.04440000  0.96480000  0.14230000  1
  H  H622  1  0.53520000  0.04440000  0.64230000  1
  H  H623  1  0.96480000  0.45560000  0.64230000  1
  C  C624  1  0.47224000  0.92414000  0.16724000  1
  C  C625  1  0.02776000  0.57586000  0.16724000  1
  C  C626  1  0.57586000  0.47224000  0.66724000  1
  C  C627  1  0.92414000  0.02776000  0.66724000  1
  C  C628  1  0.52776000  0.42414000  0.83276000  1
  C  C629  1  0.97224000  0.07586000  0.83276000  1
  C  C630  1  0.42414000  0.97224000  0.33276000  1
  C  C631  1  0.07586000  0.52776000  0.33276000  1
  C  C632  1  0.52776000  0.07586000  0.83276000  1
  C  C633  1  0.97224000  0.42414000  0.83276000  1
  C  C634  1  0.42414000  0.52776000  0.33276000  1
  C  C635  1  0.07586000  0.97224000  0.33276000  1
  C  C636  1  0.47224000  0.57586000  0.16724000  1
  C  C637  1  0.02776000  0.92414000  0.16724000  1
  C  C638  1  0.57586000  0.02776000  0.66724000  1
  C  C639  1  0.92414000  0.47224000  0.66724000  1
  H  H640  1  0.45490000  0.92200000  0.18340000  1
  H  H641  1  0.04510000  0.57800000  0.18340000  1
  H  H642  1  0.57800000  0.45490000  0.68340000  1
  H  H643  1  0.92200000  0.04510000  0.68340000  1
  H  H644  1  0.54510000  0.42200000  0.81660000  1
  H  H645  1  0.95490000  0.07800000  0.81660000  1
  H  H646  1  0.42200000  0.95490000  0.31660000  1
  H  H647  1  0.07800000  0.54510000  0.31660000  1
  H  H648  1  0.54510000  0.07800000  0.81660000  1
  H  H649  1  0.95490000  0.42200000  0.81660000  1
  H  H650  1  0.42200000  0.54510000  0.31660000  1
  H  H651  1  0.07800000  0.95490000  0.31660000  1
  H  H652  1  0.45490000  0.57800000  0.18340000  1
  H  H653  1  0.04510000  0.92200000  0.18340000  1
  H  H654  1  0.57800000  0.04510000  0.68340000  1
  H  H655  1  0.92200000  0.45490000  0.68340000  1
  C  C656  1  0.49838000  0.90286000  0.16565000  1
  C  C657  1  0.00162000  0.59714000  0.16565000  1
  C  C658  1  0.59714000  0.49838000  0.66565000  1
  C  C659  1  0.90286000  0.00162000  0.66565000  1
  C  C660  1  0.50162000  0.40286000  0.83435000  1
  C  C661  1  0.00000000  0.09714000  0.83435000  1
  C  C662  1  0.40286000  0.00000000  0.33435000  1
  C  C663  1  0.09714000  0.50162000  0.33435000  1
  C  C664  1  0.50162000  0.09714000  0.83435000  1
  C  C665  1  0.00000000  0.40286000  0.83435000  1
  C  C666  1  0.40286000  0.50162000  0.33435000  1
  C  C667  1  0.09714000  0.00000000  0.33435000  1
  C  C668  1  0.49838000  0.59714000  0.16565000  1
  C  C669  1  0.00162000  0.90286000  0.16565000  1
  C  C670  1  0.59714000  0.00162000  0.66565000  1
  C  C671  1  0.90286000  0.49838000  0.66565000  1
  C  C672  1  0.52453000  0.90505000  0.14175000  1
  C  C673  1  0.97547000  0.59495000  0.14175000  1
  C  C674  1  0.59495000  0.52453000  0.64175000  1
  C  C675  1  0.90505000  0.97547000  0.64175000  1
  C  C676  1  0.47547000  0.40505000  0.85825000  1
  C  C677  1  0.02453000  0.09495000  0.85825000  1
  C  C678  1  0.40505000  0.02453000  0.35825000  1
  C  C679  1  0.09495000  0.47547000  0.35825000  1
  C  C680  1  0.47547000  0.09495000  0.85825000  1
  C  C681  1  0.02453000  0.40505000  0.85825000  1
  C  C682  1  0.40505000  0.47547000  0.35825000  1
  C  C683  1  0.09495000  0.02453000  0.35825000  1
  C  C684  1  0.52453000  0.59495000  0.14175000  1
  C  C685  1  0.97547000  0.90505000  0.14175000  1
  C  C686  1  0.59495000  0.97547000  0.64175000  1
  C  C687  1  0.90505000  0.52453000  0.64175000  1
  H  H688  1  0.54110000  0.88870000  0.14070000  1
  H  H689  1  0.95890000  0.61130000  0.14070000  1
  H  H690  1  0.61130000  0.54110000  0.64070000  1
  H  H691  1  0.88870000  0.95890000  0.64070000  1
  H  H692  1  0.45890000  0.38870000  0.85930000  1
  H  H693  1  0.04110000  0.11130000  0.85930000  1
  H  H694  1  0.38870000  0.04110000  0.35930000  1
  H  H695  1  0.11130000  0.45890000  0.35930000  1
  H  H696  1  0.45890000  0.11130000  0.85930000  1
  H  H697  1  0.04110000  0.38870000  0.85930000  1
  H  H698  1  0.38870000  0.45890000  0.35930000  1
  H  H699  1  0.11130000  0.04110000  0.35930000  1
  H  H700  1  0.54110000  0.61130000  0.14070000  1
  H  H701  1  0.95890000  0.88870000  0.14070000  1
  H  H702  1  0.61130000  0.95890000  0.64070000  1
  H  H703  1  0.88870000  0.54110000  0.64070000  1
  C  C704  1  0.52534000  0.93104000  0.12045000  1
  C  C705  1  0.97466000  0.56896000  0.12045000  1
  C  C706  1  0.56896000  0.52534000  0.62045000  1
  C  C707  1  0.93104000  0.97466000  0.62045000  1
  C  C708  1  0.47466000  0.43104000  0.87955000  1
  C  C709  1  0.02534000  0.06896000  0.87955000  1
  C  C710  1  0.43104000  0.02534000  0.37955000  1
  C  C711  1  0.06896000  0.47466000  0.37955000  1
  C  C712  1  0.47466000  0.06896000  0.87955000  1
  C  C713  1  0.02534000  0.43104000  0.87955000  1
  C  C714  1  0.43104000  0.47466000  0.37955000  1
  C  C715  1  0.06896000  0.02534000  0.37955000  1
  C  C716  1  0.52534000  0.56896000  0.12045000  1
  C  C717  1  0.97466000  0.93104000  0.12045000  1
  C  C718  1  0.56896000  0.97466000  0.62045000  1
  C  C719  1  0.93104000  0.52534000  0.62045000  1
  H  H720  1  0.54360000  0.93410000  0.10550000  1
  H  H721  1  0.95640000  0.56590000  0.10550000  1
  H  H722  1  0.56590000  0.54360000  0.60550000  1
  H  H723  1  0.93410000  0.95640000  0.60550000  1
  H  H724  1  0.45640000  0.43410000  0.89450000  1
  H  H725  1  0.04360000  0.06590000  0.89450000  1
  H  H726  1  0.43410000  0.04360000  0.39450000  1
  H  H727  1  0.06590000  0.45640000  0.39450000  1
  H  H728  1  0.45640000  0.06590000  0.89450000  1
  H  H729  1  0.04360000  0.43410000  0.89450000  1
  H  H730  1  0.43410000  0.45640000  0.39450000  1
  H  H731  1  0.06590000  0.04360000  0.39450000  1
  H  H732  1  0.54360000  0.56590000  0.10550000  1
  H  H733  1  0.95640000  0.93410000  0.10550000  1
  H  H734  1  0.56590000  0.95640000  0.60550000  1
  H  H735  1  0.93410000  0.54360000  0.60550000  1
  C  C736  1  0.49865000  0.87496000  0.19284000  1
  C  C737  1  0.00135000  0.62504000  0.19284000  1
  C  C738  1  0.62504000  0.49865000  0.69284000  1
  C  C739  1  0.87496000  0.00135000  0.69284000  1
  C  C740  1  0.50135000  0.37496000  0.80716000  1
  C  C741  1  0.00000000  0.12504000  0.80716000  1
  C  C742  1  0.37496000  0.00000000  0.30716000  1
  C  C743  1  0.12504000  0.50135000  0.30716000  1
  C  C744  1  0.50135000  0.12504000  0.80716000  1
  C  C745  1  0.00000000  0.37496000  0.80716000  1
  C  C746  1  0.37496000  0.50135000  0.30716000  1
  C  C747  1  0.12504000  0.00000000  0.30716000  1
  C  C748  1  0.49865000  0.62504000  0.19284000  1
  C  C749  1  0.00135000  0.87496000  0.19284000  1
  C  C750  1  0.62504000  0.00135000  0.69284000  1
  C  C751  1  0.87496000  0.49865000  0.69284000  1
  C  C752  1  0.46804000  0.86257000  0.20214000  1
  C  C753  1  0.03196000  0.63743000  0.20214000  1
  C  C754  1  0.63743000  0.46804000  0.70214000  1
  C  C755  1  0.86257000  0.03196000  0.70214000  1
  C  C756  1  0.53196000  0.36257000  0.79786000  1
  C  C757  1  0.96804000  0.13743000  0.79786000  1
  C  C758  1  0.36257000  0.96804000  0.29786000  1
  C  C759  1  0.13743000  0.53196000  0.29786000  1
  C  C760  1  0.53196000  0.13743000  0.79786000  1
  C  C761  1  0.96804000  0.36257000  0.79786000  1
  C  C762  1  0.36257000  0.53196000  0.29786000  1
  C  C763  1  0.13743000  0.96804000  0.29786000  1
  C  C764  1  0.46804000  0.63743000  0.20214000  1
  C  C765  1  0.03196000  0.86257000  0.20214000  1
  C  C766  1  0.63743000  0.03196000  0.70214000  1
  C  C767  1  0.86257000  0.46804000  0.70214000  1
  H  H768  1  0.44870000  0.87100000  0.19150000  1
  H  H769  1  0.05130000  0.62900000  0.19150000  1
  H  H770  1  0.62900000  0.44870000  0.69150000  1
  H  H771  1  0.87100000  0.05130000  0.69150000  1
  H  H772  1  0.55130000  0.37100000  0.80850000  1
  H  H773  1  0.94870000  0.12900000  0.80850000  1
  H  H774  1  0.37100000  0.94870000  0.30850000  1
  H  H775  1  0.12900000  0.55130000  0.30850000  1
  H  H776  1  0.55130000  0.12900000  0.80850000  1
  H  H777  1  0.94870000  0.37100000  0.80850000  1
  H  H778  1  0.37100000  0.55130000  0.30850000  1
  H  H779  1  0.12900000  0.94870000  0.30850000  1
  H  H780  1  0.44870000  0.62900000  0.19150000  1
  H  H781  1  0.05130000  0.87100000  0.19150000  1
  H  H782  1  0.62900000  0.05130000  0.69150000  1
  H  H783  1  0.87100000  0.44870000  0.69150000  1
  C  C784  1  0.46523000  0.83775000  0.22674000  1
  C  C785  1  0.03477000  0.66225000  0.22674000  1
  C  C786  1  0.66225000  0.46523000  0.72674000  1
  C  C787  1  0.83775000  0.03477000  0.72674000  1
  C  C788  1  0.53477000  0.33775000  0.77326000  1
  C  C789  1  0.96523000  0.16225000  0.77326000  1
  C  C790  1  0.33775000  0.96523000  0.27326000  1
  C  C791  1  0.16225000  0.53477000  0.27326000  1
  C  C792  1  0.53477000  0.16225000  0.77326000  1
  C  C793  1  0.96523000  0.33775000  0.77326000  1
  C  C794  1  0.33775000  0.53477000  0.27326000  1
  C  C795  1  0.16225000  0.96523000  0.27326000  1
  C  C796  1  0.46523000  0.66225000  0.22674000  1
  C  C797  1  0.03477000  0.83775000  0.22674000  1
  C  C798  1  0.66225000  0.03477000  0.72674000  1
  C  C799  1  0.83775000  0.46523000  0.72674000  1
  H  H800  1  0.44400000  0.83030000  0.23340000  1
  H  H801  1  0.05600000  0.66970000  0.23340000  1
  H  H802  1  0.66970000  0.44400000  0.73340000  1
  H  H803  1  0.83030000  0.05600000  0.73340000  1
  H  H804  1  0.55600000  0.33030000  0.76660000  1
  H  H805  1  0.94400000  0.16970000  0.76660000  1
  H  H806  1  0.33030000  0.94400000  0.26660000  1
  H  H807  1  0.16970000  0.55600000  0.26660000  1
  H  H808  1  0.55600000  0.16970000  0.76660000  1
  H  H809  1  0.94400000  0.33030000  0.76660000  1
  H  H810  1  0.33030000  0.55600000  0.26660000  1
  H  H811  1  0.16970000  0.94400000  0.26660000  1
  H  H812  1  0.44400000  0.66970000  0.23340000  1
  H  H813  1  0.05600000  0.83030000  0.23340000  1
  H  H814  1  0.66970000  0.05600000  0.73340000  1
  H  H815  1  0.83030000  0.44400000  0.73340000  1
  C  C816  1  0.49406000  0.82377000  0.24213000  1
  C  C817  1  0.00594000  0.67623000  0.24213000  1
  C  C818  1  0.67623000  0.49406000  0.74213000  1
  C  C819  1  0.82377000  0.00594000  0.74213000  1
  C  C820  1  0.50594000  0.32377000  0.75787000  1
  C  C821  1  0.99406000  0.17623000  0.75787000  1
  C  C822  1  0.32377000  0.99406000  0.25787000  1
  C  C823  1  0.17623000  0.50594000  0.25787000  1
  C  C824  1  0.50594000  0.17623000  0.75787000  1
  C  C825  1  0.99406000  0.32377000  0.75787000  1
  C  C826  1  0.32377000  0.50594000  0.25787000  1
  C  C827  1  0.17623000  0.99406000  0.25787000  1
  C  C828  1  0.49406000  0.67623000  0.24213000  1
  C  C829  1  0.00594000  0.82377000  0.24213000  1
  C  C830  1  0.67623000  0.00594000  0.74213000  1
  C  C831  1  0.82377000  0.49406000  0.74213000  1
  C  C832  1  0.52674000  0.83566000  0.23254000  1
  C  C833  1  0.97326000  0.66434000  0.23254000  1
  C  C834  1  0.66434000  0.52674000  0.73254000  1
  C  C835  1  0.83566000  0.97326000  0.73254000  1
  C  C836  1  0.47326000  0.33566000  0.76746000  1
  C  C837  1  0.02674000  0.16434000  0.76746000  1
  C  C838  1  0.33566000  0.02674000  0.26746000  1
  C  C839  1  0.16434000  0.47326000  0.26746000  1
  C  C840  1  0.47326000  0.16434000  0.76746000  1
  C  C841  1  0.02674000  0.33566000  0.76746000  1
  C  C842  1  0.33566000  0.47326000  0.26746000  1
  C  C843  1  0.16434000  0.02674000  0.26746000  1
  C  C844  1  0.52674000  0.66434000  0.23254000  1
  C  C845  1  0.97326000  0.83566000  0.23254000  1
  C  C846  1  0.66434000  0.97326000  0.73254000  1
  C  C847  1  0.83566000  0.52674000  0.73254000  1
  H  H848  1  0.54620000  0.82670000  0.24220000  1
  H  H849  1  0.95380000  0.67330000  0.24220000  1
  H  H850  1  0.67330000  0.54620000  0.74220000  1
  H  H851  1  0.82670000  0.95380000  0.74220000  1
  H  H852  1  0.45380000  0.32670000  0.75780000  1
  H  H853  1  0.04620000  0.17330000  0.75780000  1
  H  H854  1  0.32670000  0.04620000  0.25780000  1
  H  H855  1  0.17330000  0.45380000  0.25780000  1
  H  H856  1  0.45380000  0.17330000  0.75780000  1
  H  H857  1  0.04620000  0.32670000  0.75780000  1
  H  H858  1  0.32670000  0.45380000  0.25780000  1
  H  H859  1  0.17330000  0.04620000  0.25780000  1
  H  H860  1  0.54620000  0.67330000  0.24220000  1
  H  H861  1  0.95380000  0.82670000  0.24220000  1
  H  H862  1  0.67330000  0.95380000  0.74220000  1
  H  H863  1  0.82670000  0.54620000  0.74220000  1
  C  C864  1  0.52794000  0.86136000  0.20784000  1
  C  C865  1  0.97206000  0.63864000  0.20784000  1
  C  C866  1  0.63864000  0.52794000  0.70784000  1
  C  C867  1  0.86136000  0.97206000  0.70784000  1
  C  C868  1  0.47206000  0.36136000  0.79216000  1
  C  C869  1  0.02794000  0.13864000  0.79216000  1
  C  C870  1  0.36136000  0.02794000  0.29216000  1
  C  C871  1  0.13864000  0.47206000  0.29216000  1
  C  C872  1  0.47206000  0.13864000  0.79216000  1
  C  C873  1  0.02794000  0.36136000  0.79216000  1
  C  C874  1  0.36136000  0.47206000  0.29216000  1
  C  C875  1  0.13864000  0.02794000  0.29216000  1
  C  C876  1  0.52794000  0.63864000  0.20784000  1
  C  C877  1  0.97206000  0.86136000  0.20784000  1
  C  C878  1  0.63864000  0.97206000  0.70784000  1
  C  C879  1  0.86136000  0.52794000  0.70784000  1
  H  H880  1  0.54870000  0.86990000  0.20100000  1
  H  H881  1  0.95130000  0.63010000  0.20100000  1
  H  H882  1  0.63010000  0.54870000  0.70100000  1
  H  H883  1  0.86990000  0.95130000  0.70100000  1
  H  H884  1  0.45130000  0.36990000  0.79900000  1
  H  H885  1  0.04870000  0.13010000  0.79900000  1
  H  H886  1  0.36990000  0.04870000  0.29900000  1
  H  H887  1  0.13010000  0.45130000  0.29900000  1
  H  H888  1  0.45130000  0.13010000  0.79900000  1
  H  H889  1  0.04870000  0.36990000  0.79900000  1
  H  H890  1  0.36990000  0.45130000  0.29900000  1
  H  H891  1  0.13010000  0.04870000  0.29900000  1
  H  H892  1  0.54870000  0.63010000  0.20100000  1
  H  H893  1  0.95130000  0.86990000  0.20100000  1
  H  H894  1  0.63010000  0.95130000  0.70100000  1
  H  H895  1  0.86990000  0.54870000  0.70100000  1
  C  C896  1  0.49463000  0.79317000  0.27163000  1
  C  C897  1  0.00537000  0.70683000  0.27163000  1
  C  C898  1  0.70683000  0.49463000  0.77163000  1
  C  C899  1  0.79317000  0.00537000  0.77163000  1
  C  C900  1  0.50537000  0.29317000  0.72837000  1
  C  C901  1  0.99463000  0.20683000  0.72837000  1
  C  C902  1  0.29317000  0.99463000  0.22837000  1
  C  C903  1  0.20683000  0.50537000  0.22837000  1
  C  C904  1  0.50537000  0.20683000  0.72837000  1
  C  C905  1  0.99463000  0.29317000  0.72837000  1
  C  C906  1  0.29317000  0.50537000  0.22837000  1
  C  C907  1  0.20683000  0.99463000  0.22837000  1
  C  C908  1  0.49463000  0.70683000  0.27163000  1
  C  C909  1  0.00537000  0.79317000  0.27163000  1
  C  C910  1  0.70683000  0.00537000  0.77163000  1
  C  C911  1  0.79317000  0.49463000  0.77163000  1
  C  C912  1  0.54834000  0.00754000  0.01934000  1
  C  C913  1  0.95166000  0.49246000  0.01934000  1
  C  C914  1  0.49246000  0.54834000  0.51934000  1
  C  C915  1  0.00754000  0.95166000  0.51934000  1
  C  C916  1  0.45166000  0.50754000  0.98066000  1
  C  C917  1  0.04834000  0.99246000  0.98066000  1
  C  C918  1  0.50754000  0.04834000  0.48066000  1
  C  C919  1  0.99246000  0.45166000  0.48066000  1
  C  C920  1  0.45166000  0.99246000  0.98066000  1
  C  C921  1  0.04834000  0.50754000  0.98066000  1
  C  C922  1  0.50754000  0.45166000  0.48066000  1
  C  C923  1  0.99246000  0.04834000  0.48066000  1
  C  C924  1  0.54834000  0.49246000  0.01934000  1
  C  C925  1  0.95166000  0.00754000  0.01934000  1
  C  C926  1  0.49246000  0.95166000  0.51934000  1
  C  C927  1  0.00754000  0.54834000  0.51934000  1
  C  C928  1  0.57464000  0.98327000  0.02063000  1
  C  C929  1  0.92536000  0.51673000  0.02063000  1
  C  C930  1  0.51673000  0.57464000  0.52063000  1
  C  C931  1  0.98327000  0.92536000  0.52063000  1
  C  C932  1  0.42536000  0.48327000  0.97937000  1
  C  C933  1  0.07464000  0.01673000  0.97937000  1
  C  C934  1  0.48327000  0.07464000  0.47937000  1
  C  C935  1  0.01673000  0.42536000  0.47937000  1
  C  C936  1  0.42536000  0.01673000  0.97937000  1
  C  C937  1  0.07464000  0.48327000  0.97937000  1
  C  C938  1  0.48327000  0.42536000  0.47937000  1
  C  C939  1  0.01673000  0.07464000  0.47937000  1
  C  C940  1  0.57464000  0.51673000  0.02063000  1
  C  C941  1  0.92536000  0.98327000  0.02063000  1
  C  C942  1  0.51673000  0.92536000  0.52063000  1
  C  C943  1  0.98327000  0.57464000  0.52063000  1
  H  H944  1  0.57450000  0.96730000  0.03840000  1
  H  H945  1  0.92550000  0.53270000  0.03840000  1
  H  H946  1  0.53270000  0.57450000  0.53840000  1
  H  H947  1  0.96730000  0.92550000  0.53840000  1
  H  H948  1  0.42550000  0.46730000  0.96160000  1
  H  H949  1  0.07450000  0.03270000  0.96160000  1
  H  H950  1  0.46730000  0.07450000  0.46160000  1
  H  H951  1  0.03270000  0.42550000  0.46160000  1
  H  H952  1  0.42550000  0.03270000  0.96160000  1
  H  H953  1  0.07450000  0.46730000  0.96160000  1
  H  H954  1  0.46730000  0.42550000  0.46160000  1
  H  H955  1  0.03270000  0.07450000  0.46160000  1
  H  H956  1  0.57450000  0.53270000  0.03840000  1
  H  H957  1  0.92550000  0.96730000  0.03840000  1
  H  H958  1  0.53270000  0.92550000  0.53840000  1
  H  H959  1  0.96730000  0.57450000  0.53840000  1
  C  C960  1  0.60104000  0.98257000  0.00000000  1
  C  C961  1  0.89896000  0.51743000  0.00000000  1
  C  C962  1  0.51743000  0.60104000  0.49566000  1
  C  C963  1  0.98257000  0.89896000  0.49566000  1
  C  C964  1  0.39896000  0.48257000  0.00434000  1
  C  C965  1  0.10104000  0.01743000  0.00434000  1
  C  C966  1  0.48257000  0.10104000  0.50434000  1
  C  C967  1  0.01743000  0.39896000  0.50434000  1
  C  C968  1  0.39896000  0.01743000  0.00434000  1
  C  C969  1  0.10104000  0.48257000  0.00434000  1
  C  C970  1  0.48257000  0.39896000  0.50434000  1
  C  C971  1  0.01743000  0.10104000  0.50434000  1
  C  C972  1  0.60104000  0.51743000  0.00000000  1
  C  C973  1  0.89896000  0.98257000  0.00000000  1
  C  C974  1  0.51743000  0.89896000  0.49566000  1
  C  C975  1  0.98257000  0.60104000  0.49566000  1
  H  H976  1  0.61810000  0.96660000  0.00000000  1
  H  H977  1  0.88190000  0.53340000  0.00000000  1
  H  H978  1  0.53340000  0.61810000  0.49650000  1
  H  H979  1  0.96660000  0.88190000  0.49650000  1
  H  H980  1  0.38190000  0.46660000  0.00350000  1
  H  H981  1  0.11810000  0.03340000  0.00350000  1
  H  H982  1  0.46660000  0.11810000  0.50350000  1
  H  H983  1  0.03340000  0.38190000  0.50350000  1
  H  H984  1  0.38190000  0.03340000  0.00350000  1
  H  H985  1  0.11810000  0.46660000  0.00350000  1
  H  H986  1  0.46660000  0.38190000  0.50350000  1
  H  H987  1  0.03340000  0.11810000  0.50350000  1
  H  H988  1  0.61810000  0.53340000  0.00000000  1
  H  H989  1  0.88190000  0.96660000  0.00000000  1
  H  H990  1  0.53340000  0.88190000  0.49650000  1
  H  H991  1  0.96660000  0.61810000  0.49650000  1
  C  C992  1  0.59944000  0.00755000  0.96976000  1
  C  C993  1  0.90056000  0.49245000  0.96976000  1
  C  C994  1  0.49245000  0.59944000  0.46976000  1
  C  C995  1  0.00755000  0.90056000  0.46976000  1
  C  C996  1  0.40056000  0.50755000  0.03024000  1
  C  C997  1  0.09944000  0.99245000  0.03024000  1
  C  C998  1  0.50755000  0.09944000  0.53024000  1
  C  C999  1  0.99245000  0.40056000  0.53024000  1
  C  C1000  1  0.40056000  0.99245000  0.03024000  1
  C  C1001  1  0.09944000  0.50755000  0.03024000  1
  C  C1002  1  0.50755000  0.40056000  0.53024000  1
  C  C1003  1  0.99245000  0.09944000  0.53024000  1
  C  C1004  1  0.59944000  0.49245000  0.96976000  1
  C  C1005  1  0.90056000  0.00755000  0.96976000  1
  C  C1006  1  0.49245000  0.90056000  0.46976000  1
  C  C1007  1  0.00755000  0.59944000  0.46976000  1
  C  C1008  1  0.57334000  0.03183000  0.96957000  1
  C  C1009  1  0.92666000  0.46817000  0.96957000  1
  C  C1010  1  0.46817000  0.57334000  0.46957000  1
  C  C1011  1  0.03183000  0.92666000  0.46957000  1
  C  C1012  1  0.42666000  0.53183000  0.03043000  1
  C  C1013  1  0.07334000  0.96817000  0.03043000  1
  C  C1014  1  0.53183000  0.07334000  0.53043000  1
  C  C1015  1  0.96817000  0.42666000  0.53043000  1
  C  C1016  1  0.42666000  0.96817000  0.03043000  1
  C  C1017  1  0.07334000  0.53183000  0.03043000  1
  C  C1018  1  0.53183000  0.42666000  0.53043000  1
  C  C1019  1  0.96817000  0.07334000  0.53043000  1
  C  C1020  1  0.57334000  0.46817000  0.96957000  1
  C  C1021  1  0.92666000  0.03183000  0.96957000  1
  C  C1022  1  0.46817000  0.92666000  0.46957000  1
  C  C1023  1  0.03183000  0.57334000  0.46957000  1
  H  H1024  1  0.57360000  0.04840000  0.95240000  1
  H  H1025  1  0.92640000  0.45160000  0.95240000  1
  H  H1026  1  0.45160000  0.57360000  0.45240000  1
  H  H1027  1  0.04840000  0.92640000  0.45240000  1
  H  H1028  1  0.42640000  0.54840000  0.04760000  1
  H  H1029  1  0.07360000  0.95160000  0.04760000  1
  H  H1030  1  0.54840000  0.07360000  0.54760000  1
  H  H1031  1  0.95160000  0.42640000  0.54760000  1
  H  H1032  1  0.42640000  0.95160000  0.04760000  1
  H  H1033  1  0.07360000  0.54840000  0.04760000  1
  H  H1034  1  0.54840000  0.42640000  0.54760000  1
  H  H1035  1  0.95160000  0.07360000  0.54760000  1
  H  H1036  1  0.57360000  0.45160000  0.95240000  1
  H  H1037  1  0.92640000  0.04840000  0.95240000  1
  H  H1038  1  0.45160000  0.92640000  0.45240000  1
  H  H1039  1  0.04840000  0.57360000  0.45240000  1
  C  C1040  1  0.54753000  0.03223000  0.99347000  1
  C  C1041  1  0.95247000  0.46777000  0.99347000  1
  C  C1042  1  0.46777000  0.54753000  0.49347000  1
  C  C1043  1  0.03223000  0.95247000  0.49347000  1
  C  C1044  1  0.45247000  0.53223000  0.00653000  1
  C  C1045  1  0.04753000  0.96777000  0.00653000  1
  C  C1046  1  0.53223000  0.04753000  0.50653000  1
  C  C1047  1  0.96777000  0.45247000  0.50653000  1
  C  C1048  1  0.45247000  0.96777000  0.00653000  1
  C  C1049  1  0.04753000  0.53223000  0.00653000  1
  C  C1050  1  0.53223000  0.45247000  0.50653000  1
  C  C1051  1  0.96777000  0.04753000  0.50653000  1
  C  C1052  1  0.54753000  0.46777000  0.99347000  1
  C  C1053  1  0.95247000  0.03223000  0.99347000  1
  C  C1054  1  0.46777000  0.95247000  0.49347000  1
  C  C1055  1  0.03223000  0.54753000  0.49347000  1
  H  H1056  1  0.53040000  0.04810000  0.99250000  1
  H  H1057  1  0.96960000  0.45190000  0.99250000  1
  H  H1058  1  0.45190000  0.53040000  0.49250000  1
  H  H1059  1  0.04810000  0.96960000  0.49250000  1
  H  H1060  1  0.46960000  0.54810000  0.00750000  1
  H  H1061  1  0.03040000  0.95190000  0.00750000  1
  H  H1062  1  0.54810000  0.03040000  0.50750000  1
  H  H1063  1  0.95190000  0.46960000  0.50750000  1
  H  H1064  1  0.46960000  0.95190000  0.00750000  1
  H  H1065  1  0.03040000  0.54810000  0.00750000  1
  H  H1066  1  0.54810000  0.46960000  0.50750000  1
  H  H1067  1  0.95190000  0.03040000  0.50750000  1
  H  H1068  1  0.53040000  0.45190000  0.99250000  1
  H  H1069  1  0.96960000  0.04810000  0.99250000  1
  H  H1070  1  0.45190000  0.96960000  0.49250000  1
  H  H1071  1  0.04810000  0.53040000  0.49250000  1
  C  C1072  1  0.62774000  0.01026000  0.94146000  1
  C  C1073  1  0.87226000  0.48974000  0.94146000  1
  C  C1074  1  0.48974000  0.62774000  0.44146000  1
  C  C1075  1  0.01026000  0.87226000  0.44146000  1
  C  C1076  1  0.37226000  0.51026000  0.05854000  1
  C  C1077  1  0.12774000  0.98974000  0.05854000  1
  C  C1078  1  0.51026000  0.12774000  0.55854000  1
  C  C1079  1  0.98974000  0.37226000  0.55854000  1
  C  C1080  1  0.37226000  0.98974000  0.05854000  1
  C  C1081  1  0.12774000  0.51026000  0.05854000  1
  C  C1082  1  0.51026000  0.37226000  0.55854000  1
  C  C1083  1  0.98974000  0.12774000  0.55854000  1
  C  C1084  1  0.62774000  0.48974000  0.94146000  1
  C  C1085  1  0.87226000  0.01026000  0.94146000  1
  C  C1086  1  0.48974000  0.87226000  0.44146000  1
  C  C1087  1  0.01026000  0.62774000  0.44146000  1
  C  C1088  1  0.63995000  0.97895000  0.93106000  1
  C  C1089  1  0.86005000  0.52105000  0.93106000  1
  C  C1090  1  0.52105000  0.63995000  0.43106000  1
  C  C1091  1  0.97895000  0.86005000  0.43106000  1
  C  C1092  1  0.36005000  0.47895000  0.06894000  1
  C  C1093  1  0.13995000  0.02105000  0.06894000  1
  C  C1094  1  0.47895000  0.13995000  0.56894000  1
  C  C1095  1  0.02105000  0.36005000  0.56894000  1
  C  C1096  1  0.36005000  0.02105000  0.06894000  1
  C  C1097  1  0.13995000  0.47895000  0.06894000  1
  C  C1098  1  0.47895000  0.36005000  0.56894000  1
  C  C1099  1  0.02105000  0.13995000  0.56894000  1
  C  C1100  1  0.63995000  0.52105000  0.93106000  1
  C  C1101  1  0.86005000  0.97895000  0.93106000  1
  C  C1102  1  0.52105000  0.86005000  0.43106000  1
  C  C1103  1  0.97895000  0.63995000  0.43106000  1
  H  H1104  1  0.63110000  0.95910000  0.94020000  1
  H  H1105  1  0.86890000  0.54090000  0.94020000  1
  H  H1106  1  0.54090000  0.63110000  0.44020000  1
  H  H1107  1  0.95910000  0.86890000  0.44020000  1
  H  H1108  1  0.36890000  0.45910000  0.05980000  1
  H  H1109  1  0.13110000  0.04090000  0.05980000  1
  H  H1110  1  0.45910000  0.13110000  0.55980000  1
  H  H1111  1  0.04090000  0.36890000  0.55980000  1
  H  H1112  1  0.36890000  0.04090000  0.05980000  1
  H  H1113  1  0.13110000  0.45910000  0.05980000  1
  H  H1114  1  0.45910000  0.36890000  0.55980000  1
  H  H1115  1  0.04090000  0.13110000  0.55980000  1
  H  H1116  1  0.63110000  0.54090000  0.94020000  1
  H  H1117  1  0.86890000  0.95910000  0.94020000  1
  H  H1118  1  0.54090000  0.86890000  0.44020000  1
  H  H1119  1  0.95910000  0.63110000  0.44020000  1
  C  C1120  1  0.66615000  0.97847000  0.90635000  1
  C  C1121  1  0.83385000  0.52153000  0.90635000  1
  C  C1122  1  0.52153000  0.66615000  0.40635000  1
  C  C1123  1  0.97847000  0.83385000  0.40635000  1
  C  C1124  1  0.33385000  0.47847000  0.09365000  1
  C  C1125  1  0.16615000  0.02153000  0.09365000  1
  C  C1126  1  0.47847000  0.16615000  0.59365000  1
  C  C1127  1  0.02153000  0.33385000  0.59365000  1
  C  C1128  1  0.33385000  0.02153000  0.09365000  1
  C  C1129  1  0.16615000  0.47847000  0.09365000  1
  C  C1130  1  0.47847000  0.33385000  0.59365000  1
  C  C1131  1  0.02153000  0.16615000  0.59365000  1
  C  C1132  1  0.66615000  0.52153000  0.90635000  1
  C  C1133  1  0.83385000  0.97847000  0.90635000  1
  C  C1134  1  0.52153000  0.83385000  0.40635000  1
  C  C1135  1  0.97847000  0.66615000  0.40635000  1
  H  H1136  1  0.67530000  0.95770000  0.90030000  1
  H  H1137  1  0.82470000  0.54230000  0.90030000  1
  H  H1138  1  0.54230000  0.67530000  0.40030000  1
  H  H1139  1  0.95770000  0.82470000  0.40030000  1
  H  H1140  1  0.32470000  0.45770000  0.09970000  1
  H  H1141  1  0.17530000  0.04230000  0.09970000  1
  H  H1142  1  0.45770000  0.17530000  0.59970000  1
  H  H1143  1  0.04230000  0.32470000  0.59970000  1
  H  H1144  1  0.32470000  0.04230000  0.09970000  1
  H  H1145  1  0.17530000  0.45770000  0.09970000  1
  H  H1146  1  0.45770000  0.32470000  0.59970000  1
  H  H1147  1  0.04230000  0.17530000  0.59970000  1
  H  H1148  1  0.67530000  0.54230000  0.90030000  1
  H  H1149  1  0.82470000  0.95770000  0.90030000  1
  H  H1150  1  0.54230000  0.82470000  0.40030000  1
  H  H1151  1  0.95770000  0.67530000  0.40030000  1
  C  C1152  1  0.67893000  0.00706000  0.89047000  1
  C  C1153  1  0.82107000  0.49294000  0.89047000  1
  C  C1154  1  0.49294000  0.67893000  0.39047000  1
  C  C1155  1  0.00706000  0.82107000  0.39047000  1
  C  C1156  1  0.32107000  0.50706000  0.10953000  1
  C  C1157  1  0.17893000  0.99294000  0.10953000  1
  C  C1158  1  0.50706000  0.17893000  0.60953000  1
  C  C1159  1  0.99294000  0.32107000  0.60953000  1
  C  C1160  1  0.32107000  0.99294000  0.10953000  1
  C  C1161  1  0.17893000  0.50706000  0.10953000  1
  C  C1162  1  0.50706000  0.32107000  0.60953000  1
  C  C1163  1  0.99294000  0.17893000  0.60953000  1
  C  C1164  1  0.67893000  0.49294000  0.89047000  1
  C  C1165  1  0.82107000  0.00706000  0.89047000  1
  C  C1166  1  0.49294000  0.82107000  0.39047000  1
  C  C1167  1  0.00706000  0.67893000  0.39047000  1
  C  C1168  1  0.66554000  0.03645000  0.90206000  1
  C  C1169  1  0.83446000  0.46355000  0.90206000  1
  C  C1170  1  0.46355000  0.66554000  0.40206000  1
  C  C1171  1  0.03645000  0.83446000  0.40206000  1
  C  C1172  1  0.33446000  0.53645000  0.09794000  1
  C  C1173  1  0.16554000  0.96355000  0.09794000  1
  C  C1174  1  0.53645000  0.16554000  0.59794000  1
  C  C1175  1  0.96355000  0.33446000  0.59794000  1
  C  C1176  1  0.33446000  0.96355000  0.09794000  1
  C  C1177  1  0.16554000  0.53645000  0.09794000  1
  C  C1178  1  0.53645000  0.33446000  0.59794000  1
  C  C1179  1  0.96355000  0.16554000  0.59794000  1
  C  C1180  1  0.66554000  0.46355000  0.90206000  1
  C  C1181  1  0.83446000  0.03645000  0.90206000  1
  C  C1182  1  0.46355000  0.83446000  0.40206000  1
  C  C1183  1  0.03645000  0.66554000  0.40206000  1
  H  H1184  1  0.67450000  0.05600000  0.89240000  1
  H  H1185  1  0.82550000  0.44400000  0.89240000  1
  H  H1186  1  0.44400000  0.67450000  0.39240000  1
  H  H1187  1  0.05600000  0.82550000  0.39240000  1
  H  H1188  1  0.32550000  0.55600000  0.10760000  1
  H  H1189  1  0.17450000  0.94400000  0.10760000  1
  H  H1190  1  0.55600000  0.17450000  0.60760000  1
  H  H1191  1  0.94400000  0.32550000  0.60760000  1
  H  H1192  1  0.32550000  0.94400000  0.10760000  1
  H  H1193  1  0.17450000  0.55600000  0.10760000  1
  H  H1194  1  0.55600000  0.32550000  0.60760000  1
  H  H1195  1  0.94400000  0.17450000  0.60760000  1
  H  H1196  1  0.67450000  0.44400000  0.89240000  1
  H  H1197  1  0.82550000  0.05600000  0.89240000  1
  H  H1198  1  0.44400000  0.82550000  0.39240000  1
  H  H1199  1  0.05600000  0.67450000  0.39240000  1
  C  C1200  1  0.63944000  0.04124000  0.92706000  1
  C  C1201  1  0.86056000  0.45876000  0.92706000  1
  C  C1202  1  0.45876000  0.63944000  0.42706000  1
  C  C1203  1  0.04124000  0.86056000  0.42706000  1
  C  C1204  1  0.36056000  0.54124000  0.07294000  1
  C  C1205  1  0.13944000  0.95876000  0.07294000  1
  C  C1206  1  0.54124000  0.13944000  0.57294000  1
  C  C1207  1  0.95876000  0.36056000  0.57294000  1
  C  C1208  1  0.36056000  0.95876000  0.07294000  1
  C  C1209  1  0.13944000  0.54124000  0.07294000  1
  C  C1210  1  0.54124000  0.36056000  0.57294000  1
  C  C1211  1  0.95876000  0.13944000  0.57294000  1
  C  C1212  1  0.63944000  0.45876000  0.92706000  1
  C  C1213  1  0.86056000  0.04124000  0.92706000  1
  C  C1214  1  0.45876000  0.86056000  0.42706000  1
  C  C1215  1  0.04124000  0.63944000  0.42706000  1
  H  H1216  1  0.63090000  0.06220000  0.93340000  1
  H  H1217  1  0.86910000  0.43780000  0.93340000  1
  H  H1218  1  0.43780000  0.63090000  0.43340000  1
  H  H1219  1  0.06220000  0.86910000  0.43340000  1
  H  H1220  1  0.36910000  0.56220000  0.06660000  1
  H  H1221  1  0.13090000  0.93780000  0.06660000  1
  H  H1222  1  0.56220000  0.13090000  0.56660000  1
  H  H1223  1  0.93780000  0.36910000  0.56660000  1
  H  H1224  1  0.36910000  0.93780000  0.06660000  1
  H  H1225  1  0.13090000  0.56220000  0.06660000  1
  H  H1226  1  0.56220000  0.36910000  0.56660000  1
  H  H1227  1  0.93780000  0.13090000  0.56660000  1
  H  H1228  1  0.63090000  0.43780000  0.93340000  1
  H  H1229  1  0.86910000  0.06220000  0.93340000  1
  H  H1230  1  0.43780000  0.86910000  0.43340000  1
  H  H1231  1  0.06220000  0.63090000  0.43340000  1
  C  C1232  1  0.70363000  0.00734000  0.86367000  1
  C  C1233  1  0.79637000  0.49266000  0.86367000  1
  C  C1234  1  0.49266000  0.70363000  0.36367000  1
  C  C1235  1  0.00734000  0.79637000  0.36367000  1
  C  C1236  1  0.29637000  0.50734000  0.13633000  1
  C  C1237  1  0.20363000  0.99266000  0.13633000  1
  C  C1238  1  0.50734000  0.20363000  0.63633000  1
  C  C1239  1  0.99266000  0.29637000  0.63633000  1
  C  C1240  1  0.29637000  0.99266000  0.13633000  1
  C  C1241  1  0.20363000  0.50734000  0.13633000  1
  C  C1242  1  0.50734000  0.29637000  0.63633000  1
  C  C1243  1  0.99266000  0.20363000  0.63633000  1
  C  C1244  1  0.70363000  0.49266000  0.86367000  1
  C  C1245  1  0.79637000  0.00734000  0.86367000  1
  C  C1246  1  0.49266000  0.79637000  0.36367000  1
  C  C1247  1  0.00734000  0.70363000  0.36367000  1
