# generated using pymatgen
data_CuH18(C6O)5
_symmetry_space_group_name_H-M   'P 1'
_cell_length_a   68.31126000
_cell_length_b   68.31126000
_cell_length_c   68.31126000
_cell_angle_alpha   90.00000000
_cell_angle_beta   90.00000000
_cell_angle_gamma   90.00000000
_symmetry_Int_Tables_number   1
_chemical_formula_structural   CuH18(C6O)5
_chemical_formula_sum   'Cu48 H864 C1440 O240'
_cell_volume   318769.59296441
_cell_formula_units_Z   48
loop_
 _symmetry_equiv_pos_site_id
 _symmetry_equiv_pos_as_xyz
  1  'x, y, z'
loop_
 _atom_site_type_symbol
 _atom_site_label
 _atom_site_symmetry_multiplicity
 _atom_site_fract_x
 _atom_site_fract_y
 _atom_site_fract_z
 _atom_site_occupancy
  Cu  Cu0  1  0.00000000  0.26364300  0.23636300  1
  Cu  Cu1  1  0.00000000  0.73635700  0.23636300  1
  Cu  Cu2  1  0.00000000  0.26364300  0.76363700  1
  Cu  Cu3  1  0.00000000  0.73635700  0.76363700  1
  Cu  Cu4  1  0.23636300  0.00000000  0.26364300  1
  Cu  Cu5  1  0.23636300  0.00000000  0.73635700  1
  Cu  Cu6  1  0.76363700  0.00000000  0.26364300  1
  Cu  Cu7  1  0.76363700  0.00000000  0.73635700  1
  Cu  Cu8  1  0.26364300  0.23636300  0.00000000  1
  Cu  Cu9  1  0.73635700  0.23636300  0.00000000  1
  Cu  Cu10  1  0.26364300  0.76363700  0.00000000  1
  Cu  Cu11  1  0.73635700  0.76363700  0.00000000  1
  Cu  Cu12  1  0.26364300  0.00000000  0.76363700  1
  Cu  Cu13  1  0.73635700  0.00000000  0.76363700  1
  Cu  Cu14  1  0.26364300  0.00000000  0.23636300  1
  Cu  Cu15  1  0.73635700  0.00000000  0.23636300  1
  Cu  Cu16  1  0.00000000  0.23636300  0.73635700  1
  Cu  Cu17  1  0.00000000  0.23636300  0.26364300  1
  Cu  Cu18  1  0.00000000  0.76363700  0.73635700  1
  Cu  Cu19  1  0.00000000  0.76363700  0.26364300  1
  Cu  Cu20  1  0.23636300  0.26364300  0.00000000  1
  Cu  Cu21  1  0.23636300  0.73635700  0.00000000  1
  Cu  Cu22  1  0.76363700  0.26364300  0.00000000  1
  Cu  Cu23  1  0.76363700  0.73635700  0.00000000  1
  Cu  Cu24  1  0.23636300  0.50000000  0.76364300  1
  Cu  Cu25  1  0.23636300  0.50000000  0.23635700  1
  Cu  Cu26  1  0.76363700  0.50000000  0.76364300  1
  Cu  Cu27  1  0.76363700  0.50000000  0.23635700  1
  Cu  Cu28  1  0.26364300  0.73636300  0.50000000  1
  Cu  Cu29  1  0.73635700  0.73636300  0.50000000  1
  Cu  Cu30  1  0.26364300  0.26363700  0.50000000  1
  Cu  Cu31  1  0.73635700  0.26363700  0.50000000  1
  Cu  Cu32  1  0.26364300  0.50000000  0.26363700  1
  Cu  Cu33  1  0.73635700  0.50000000  0.26363700  1
  Cu  Cu34  1  0.26364300  0.50000000  0.73636300  1
  Cu  Cu35  1  0.73635700  0.50000000  0.73636300  1
  Cu  Cu36  1  0.23636300  0.76364300  0.50000000  1
  Cu  Cu37  1  0.23636300  0.23635700  0.50000000  1
  Cu  Cu38  1  0.76363700  0.76364300  0.50000000  1
  Cu  Cu39  1  0.76363700  0.23635700  0.50000000  1
  Cu  Cu40  1  0.50000000  0.26364300  0.73636300  1
  Cu  Cu41  1  0.50000000  0.73635700  0.73636300  1
  Cu  Cu42  1  0.50000000  0.26364300  0.26363700  1
  Cu  Cu43  1  0.50000000  0.73635700  0.26363700  1
  Cu  Cu44  1  0.50000000  0.23636300  0.23635700  1
  Cu  Cu45  1  0.50000000  0.23636300  0.76364300  1
  Cu  Cu46  1  0.50000000  0.76363700  0.23635700  1
  Cu  Cu47  1  0.50000000  0.76363700  0.76364300  1
  O  O48  1  0.01944900  0.24768900  0.22427100  1
  O  O49  1  0.98055100  0.75231100  0.22427100  1
  O  O50  1  0.98055100  0.24768900  0.77572900  1
  O  O51  1  0.01944900  0.75231100  0.77572900  1
  O  O52  1  0.22427100  0.01944900  0.24768900  1
  O  O53  1  0.22427100  0.98055100  0.75231100  1
  O  O54  1  0.77572900  0.98055100  0.24768900  1
  O  O55  1  0.77572900  0.01944900  0.75231100  1
  O  O56  1  0.24768900  0.22427100  0.01944900  1
  O  O57  1  0.75231100  0.22427100  0.98055100  1
  O  O58  1  0.24768900  0.77572900  0.98055100  1
  O  O59  1  0.75231100  0.77572900  0.01944900  1
  O  O60  1  0.24768900  0.01944900  0.77572900  1
  O  O61  1  0.75231100  0.98055100  0.77572900  1
  O  O62  1  0.24768900  0.98055100  0.22427100  1
  O  O63  1  0.75231100  0.01944900  0.22427100  1
  O  O64  1  0.01944900  0.22427100  0.75231100  1
  O  O65  1  0.98055100  0.22427100  0.24768900  1
  O  O66  1  0.98055100  0.77572900  0.75231100  1
  O  O67  1  0.01944900  0.77572900  0.24768900  1
  O  O68  1  0.22427100  0.24768900  0.98055100  1
  O  O69  1  0.22427100  0.75231100  0.01944900  1
  O  O70  1  0.77572900  0.24768900  0.01944900  1
  O  O71  1  0.77572900  0.75231100  0.98055100  1
  O  O72  1  0.01944900  0.74768900  0.72427100  1
  O  O73  1  0.98055100  0.25231100  0.72427100  1
  O  O74  1  0.98055100  0.74768900  0.27572900  1
  O  O75  1  0.01944900  0.25231100  0.27572900  1
  O  O76  1  0.22427100  0.51944900  0.74768900  1
  O  O77  1  0.22427100  0.48055100  0.25231100  1
  O  O78  1  0.77572900  0.48055100  0.74768900  1
  O  O79  1  0.77572900  0.51944900  0.25231100  1
  O  O80  1  0.24768900  0.72427100  0.51944900  1
  O  O81  1  0.75231100  0.72427100  0.48055100  1
  O  O82  1  0.24768900  0.27572900  0.48055100  1
  O  O83  1  0.75231100  0.27572900  0.51944900  1
  O  O84  1  0.24768900  0.51944900  0.27572900  1
  O  O85  1  0.75231100  0.48055100  0.27572900  1
  O  O86  1  0.24768900  0.48055100  0.72427100  1
  O  O87  1  0.75231100  0.51944900  0.72427100  1
  O  O88  1  0.01944900  0.72427100  0.25231100  1
  O  O89  1  0.98055100  0.72427100  0.74768900  1
  O  O90  1  0.98055100  0.27572900  0.25231100  1
  O  O91  1  0.01944900  0.27572900  0.74768900  1
  O  O92  1  0.22427100  0.74768900  0.48055100  1
  O  O93  1  0.22427100  0.25231100  0.51944900  1
  O  O94  1  0.77572900  0.74768900  0.51944900  1
  O  O95  1  0.77572900  0.25231100  0.48055100  1
  O  O96  1  0.51944900  0.24768900  0.72427100  1
  O  O97  1  0.48055100  0.75231100  0.72427100  1
  O  O98  1  0.48055100  0.24768900  0.27572900  1
  O  O99  1  0.51944900  0.75231100  0.27572900  1
  O  O100  1  0.72427100  0.01944900  0.74768900  1
  O  O101  1  0.72427100  0.98055100  0.25231100  1
  O  O102  1  0.27572900  0.98055100  0.74768900  1
  O  O103  1  0.27572900  0.01944900  0.25231100  1
  O  O104  1  0.74768900  0.22427100  0.51944900  1
  O  O105  1  0.25231100  0.22427100  0.48055100  1
  O  O106  1  0.74768900  0.77572900  0.48055100  1
  O  O107  1  0.25231100  0.77572900  0.51944900  1
  O  O108  1  0.74768900  0.01944900  0.27572900  1
  O  O109  1  0.25231100  0.98055100  0.27572900  1
  O  O110  1  0.74768900  0.98055100  0.72427100  1
  O  O111  1  0.25231100  0.01944900  0.72427100  1
  O  O112  1  0.51944900  0.22427100  0.25231100  1
  O  O113  1  0.48055100  0.22427100  0.74768900  1
  O  O114  1  0.48055100  0.77572900  0.25231100  1
  O  O115  1  0.51944900  0.77572900  0.74768900  1
  O  O116  1  0.72427100  0.24768900  0.48055100  1
  O  O117  1  0.72427100  0.75231100  0.51944900  1
  O  O118  1  0.27572900  0.24768900  0.51944900  1
  O  O119  1  0.27572900  0.75231100  0.48055100  1
  O  O120  1  0.51944900  0.74768900  0.22427100  1
  O  O121  1  0.48055100  0.25231100  0.22427100  1
  O  O122  1  0.48055100  0.74768900  0.77572900  1
  O  O123  1  0.51944900  0.25231100  0.77572900  1
  O  O124  1  0.72427100  0.51944900  0.24768900  1
  O  O125  1  0.72427100  0.48055100  0.75231100  1
  O  O126  1  0.27572900  0.48055100  0.24768900  1
  O  O127  1  0.27572900  0.51944900  0.75231100  1
  O  O128  1  0.74768900  0.72427100  0.01944900  1
  O  O129  1  0.25231100  0.72427100  0.98055100  1
  O  O130  1  0.74768900  0.27572900  0.98055100  1
  O  O131  1  0.25231100  0.27572900  0.01944900  1
  O  O132  1  0.74768900  0.51944900  0.77572900  1
  O  O133  1  0.25231100  0.48055100  0.77572900  1
  O  O134  1  0.74768900  0.48055100  0.22427100  1
  O  O135  1  0.25231100  0.51944900  0.22427100  1
  O  O136  1  0.51944900  0.72427100  0.75231100  1
  O  O137  1  0.48055100  0.72427100  0.24768900  1
  O  O138  1  0.48055100  0.27572900  0.75231100  1
  O  O139  1  0.51944900  0.27572900  0.24768900  1
  O  O140  1  0.72427100  0.74768900  0.98055100  1
  O  O141  1  0.72427100  0.25231100  0.01944900  1
  O  O142  1  0.27572900  0.74768900  0.01944900  1
  O  O143  1  0.27572900  0.25231100  0.98055100  1
  O  O144  1  0.98055100  0.75231100  0.77572900  1
  O  O145  1  0.01944900  0.24768900  0.77572900  1
  O  O146  1  0.01944900  0.75231100  0.22427100  1
  O  O147  1  0.98055100  0.24768900  0.22427100  1
  O  O148  1  0.77572900  0.98055100  0.75231100  1
  O  O149  1  0.77572900  0.01944900  0.24768900  1
  O  O150  1  0.22427100  0.01944900  0.75231100  1
  O  O151  1  0.22427100  0.98055100  0.24768900  1
  O  O152  1  0.75231100  0.77572900  0.98055100  1
  O  O153  1  0.24768900  0.77572900  0.01944900  1
  O  O154  1  0.75231100  0.22427100  0.01944900  1
  O  O155  1  0.24768900  0.22427100  0.98055100  1
  O  O156  1  0.75231100  0.98055100  0.22427100  1
  O  O157  1  0.24768900  0.01944900  0.22427100  1
  O  O158  1  0.75231100  0.01944900  0.77572900  1
  O  O159  1  0.24768900  0.98055100  0.77572900  1
  O  O160  1  0.98055100  0.77572900  0.24768900  1
  O  O161  1  0.01944900  0.77572900  0.75231100  1
  O  O162  1  0.01944900  0.22427100  0.24768900  1
  O  O163  1  0.98055100  0.22427100  0.75231100  1
  O  O164  1  0.77572900  0.75231100  0.01944900  1
  O  O165  1  0.77572900  0.24768900  0.98055100  1
  O  O166  1  0.22427100  0.75231100  0.98055100  1
  O  O167  1  0.22427100  0.24768900  0.01944900  1
  O  O168  1  0.98055100  0.25231100  0.27572900  1
  O  O169  1  0.01944900  0.74768900  0.27572900  1
  O  O170  1  0.01944900  0.25231100  0.72427100  1
  O  O171  1  0.98055100  0.74768900  0.72427100  1
  O  O172  1  0.77572900  0.48055100  0.25231100  1
  O  O173  1  0.77572900  0.51944900  0.74768900  1
  O  O174  1  0.22427100  0.51944900  0.25231100  1
  O  O175  1  0.22427100  0.48055100  0.74768900  1
  O  O176  1  0.75231100  0.27572900  0.48055100  1
  O  O177  1  0.24768900  0.27572900  0.51944900  1
  O  O178  1  0.75231100  0.72427100  0.51944900  1
  O  O179  1  0.24768900  0.72427100  0.48055100  1
  O  O180  1  0.75231100  0.48055100  0.72427100  1
  O  O181  1  0.24768900  0.51944900  0.72427100  1
  O  O182  1  0.75231100  0.51944900  0.27572900  1
  O  O183  1  0.24768900  0.48055100  0.27572900  1
  O  O184  1  0.98055100  0.27572900  0.74768900  1
  O  O185  1  0.01944900  0.27572900  0.25231100  1
  O  O186  1  0.01944900  0.72427100  0.74768900  1
  O  O187  1  0.98055100  0.72427100  0.25231100  1
  O  O188  1  0.77572900  0.25231100  0.51944900  1
  O  O189  1  0.77572900  0.74768900  0.48055100  1
  O  O190  1  0.22427100  0.25231100  0.48055100  1
  O  O191  1  0.22427100  0.74768900  0.51944900  1
  O  O192  1  0.48055100  0.75231100  0.27572900  1
  O  O193  1  0.51944900  0.24768900  0.27572900  1
  O  O194  1  0.51944900  0.75231100  0.72427100  1
  O  O195  1  0.48055100  0.24768900  0.72427100  1
  O  O196  1  0.27572900  0.98055100  0.25231100  1
  O  O197  1  0.27572900  0.01944900  0.74768900  1
  O  O198  1  0.72427100  0.01944900  0.25231100  1
  O  O199  1  0.72427100  0.98055100  0.74768900  1
  O  O200  1  0.25231100  0.77572900  0.48055100  1
  O  O201  1  0.74768900  0.77572900  0.51944900  1
  O  O202  1  0.25231100  0.22427100  0.51944900  1
  O  O203  1  0.74768900  0.22427100  0.48055100  1
  O  O204  1  0.25231100  0.98055100  0.72427100  1
  O  O205  1  0.74768900  0.01944900  0.72427100  1
  O  O206  1  0.25231100  0.01944900  0.27572900  1
  O  O207  1  0.74768900  0.98055100  0.27572900  1
  O  O208  1  0.48055100  0.77572900  0.74768900  1
  O  O209  1  0.51944900  0.77572900  0.25231100  1
  O  O210  1  0.51944900  0.22427100  0.74768900  1
  O  O211  1  0.48055100  0.22427100  0.25231100  1
  O  O212  1  0.27572900  0.75231100  0.51944900  1
  O  O213  1  0.27572900  0.24768900  0.48055100  1
  O  O214  1  0.72427100  0.75231100  0.48055100  1
  O  O215  1  0.72427100  0.24768900  0.51944900  1
  O  O216  1  0.48055100  0.25231100  0.77572900  1
  O  O217  1  0.51944900  0.74768900  0.77572900  1
  O  O218  1  0.51944900  0.25231100  0.22427100  1
  O  O219  1  0.48055100  0.74768900  0.22427100  1
  O  O220  1  0.27572900  0.48055100  0.75231100  1
  O  O221  1  0.27572900  0.51944900  0.24768900  1
  O  O222  1  0.72427100  0.51944900  0.75231100  1
  O  O223  1  0.72427100  0.48055100  0.24768900  1
  O  O224  1  0.25231100  0.27572900  0.98055100  1
  O  O225  1  0.74768900  0.27572900  0.01944900  1
  O  O226  1  0.25231100  0.72427100  0.01944900  1
  O  O227  1  0.74768900  0.72427100  0.98055100  1
  O  O228  1  0.25231100  0.48055100  0.22427100  1
  O  O229  1  0.74768900  0.51944900  0.22427100  1
  O  O230  1  0.25231100  0.51944900  0.77572900  1
  O  O231  1  0.74768900  0.48055100  0.77572900  1
  O  O232  1  0.48055100  0.27572900  0.24768900  1
  O  O233  1  0.51944900  0.27572900  0.75231100  1
  O  O234  1  0.51944900  0.72427100  0.24768900  1
  O  O235  1  0.48055100  0.72427100  0.75231100  1
  O  O236  1  0.27572900  0.25231100  0.01944900  1
  O  O237  1  0.27572900  0.74768900  0.98055100  1
  O  O238  1  0.72427100  0.25231100  0.98055100  1
  O  O239  1  0.72427100  0.74768900  0.01944900  1
  C  C288  1  0.14749140  0.17323160  0.14749140  1
  C  C289  1  0.85250860  0.82676840  0.14749140  1
  C  C290  1  0.85250860  0.17323160  0.85250860  1
  C  C291  1  0.14749140  0.82676840  0.85250860  1
  C  C292  1  0.14749140  0.14749140  0.17323160  1
  C  C293  1  0.14749140  0.85250860  0.82676840  1
  C  C294  1  0.85250860  0.85250860  0.17323160  1
  C  C295  1  0.85250860  0.14749140  0.82676840  1
  C  C296  1  0.17323160  0.14749140  0.14749140  1
  C  C297  1  0.82676840  0.14749140  0.85250860  1
  C  C298  1  0.17323160  0.85250860  0.85250860  1
  C  C299  1  0.82676840  0.85250860  0.14749140  1
  C  C300  1  0.17323160  0.14749140  0.85250860  1
  C  C301  1  0.82676840  0.85250860  0.85250860  1
  C  C302  1  0.17323160  0.85250860  0.14749140  1
  C  C303  1  0.82676840  0.14749140  0.14749140  1
  C  C304  1  0.14749140  0.14749140  0.82676840  1
  C  C305  1  0.85250860  0.14749140  0.17323160  1
  C  C306  1  0.85250860  0.85250860  0.82676840  1
  C  C307  1  0.14749140  0.85250860  0.17323160  1
  C  C308  1  0.14749140  0.17323160  0.85250860  1
  C  C309  1  0.14749140  0.82676840  0.14749140  1
  C  C310  1  0.85250860  0.17323160  0.14749140  1
  C  C311  1  0.85250860  0.82676840  0.85250860  1
  C  C312  1  0.14749140  0.67323160  0.64749140  1
  C  C313  1  0.85250860  0.32676840  0.64749140  1
  C  C314  1  0.85250860  0.67323160  0.35250860  1
  C  C315  1  0.14749140  0.32676840  0.35250860  1
  C  C316  1  0.14749140  0.64749140  0.67323160  1
  C  C317  1  0.14749140  0.35250860  0.32676840  1
  C  C318  1  0.85250860  0.35250860  0.67323160  1
  C  C319  1  0.85250860  0.64749140  0.32676840  1
  C  C320  1  0.17323160  0.64749140  0.64749140  1
  C  C321  1  0.82676840  0.64749140  0.35250860  1
  C  C322  1  0.17323160  0.35250860  0.35250860  1
  C  C323  1  0.82676840  0.35250860  0.64749140  1
  C  C324  1  0.17323160  0.64749140  0.35250860  1
  C  C325  1  0.82676840  0.35250860  0.35250860  1
  C  C326  1  0.17323160  0.35250860  0.64749140  1
  C  C327  1  0.82676840  0.64749140  0.64749140  1
  C  C328  1  0.14749140  0.64749140  0.32676840  1
  C  C329  1  0.85250860  0.64749140  0.67323160  1
  C  C330  1  0.85250860  0.35250860  0.32676840  1
  C  C331  1  0.14749140  0.35250860  0.67323160  1
  C  C332  1  0.14749140  0.67323160  0.35250860  1
  C  C333  1  0.14749140  0.32676840  0.64749140  1
  C  C334  1  0.85250860  0.67323160  0.64749140  1
  C  C335  1  0.85250860  0.32676840  0.35250860  1
  C  C336  1  0.64749140  0.17323160  0.64749140  1
  C  C337  1  0.35250860  0.82676840  0.64749140  1
  C  C338  1  0.35250860  0.17323160  0.35250860  1
  C  C339  1  0.64749140  0.82676840  0.35250860  1
  C  C340  1  0.64749140  0.14749140  0.67323160  1
  C  C341  1  0.64749140  0.85250860  0.32676840  1
  C  C342  1  0.35250860  0.85250860  0.67323160  1
  C  C343  1  0.35250860  0.14749140  0.32676840  1
  C  C344  1  0.67323160  0.14749140  0.64749140  1
  C  C345  1  0.32676840  0.14749140  0.35250860  1
  C  C346  1  0.67323160  0.85250860  0.35250860  1
  C  C347  1  0.32676840  0.85250860  0.64749140  1
  C  C348  1  0.67323160  0.14749140  0.35250860  1
  C  C349  1  0.32676840  0.85250860  0.35250860  1
  C  C350  1  0.67323160  0.85250860  0.64749140  1
  C  C351  1  0.32676840  0.14749140  0.64749140  1
  C  C352  1  0.64749140  0.14749140  0.32676840  1
  C  C353  1  0.35250860  0.14749140  0.67323160  1
  C  C354  1  0.35250860  0.85250860  0.32676840  1
  C  C355  1  0.64749140  0.85250860  0.67323160  1
  C  C356  1  0.64749140  0.17323160  0.35250860  1
  C  C357  1  0.64749140  0.82676840  0.64749140  1
  C  C358  1  0.35250860  0.17323160  0.64749140  1
  C  C359  1  0.35250860  0.82676840  0.35250860  1
  C  C360  1  0.64749140  0.67323160  0.14749140  1
  C  C361  1  0.35250860  0.32676840  0.14749140  1
  C  C362  1  0.35250860  0.67323160  0.85250860  1
  C  C363  1  0.64749140  0.32676840  0.85250860  1
  C  C364  1  0.64749140  0.64749140  0.17323160  1
  C  C365  1  0.64749140  0.35250860  0.82676840  1
  C  C366  1  0.35250860  0.35250860  0.17323160  1
  C  C367  1  0.35250860  0.64749140  0.82676840  1
  C  C368  1  0.67323160  0.64749140  0.14749140  1
  C  C369  1  0.32676840  0.64749140  0.85250860  1
  C  C370  1  0.67323160  0.35250860  0.85250860  1
  C  C371  1  0.32676840  0.35250860  0.14749140  1
  C  C372  1  0.67323160  0.64749140  0.85250860  1
  C  C373  1  0.32676840  0.35250860  0.85250860  1
  C  C374  1  0.67323160  0.35250860  0.14749140  1
  C  C375  1  0.32676840  0.64749140  0.14749140  1
  C  C376  1  0.64749140  0.64749140  0.82676840  1
  C  C377  1  0.35250860  0.64749140  0.17323160  1
  C  C378  1  0.35250860  0.35250860  0.82676840  1
  C  C379  1  0.64749140  0.35250860  0.17323160  1
  C  C380  1  0.64749140  0.67323160  0.85250860  1
  C  C381  1  0.64749140  0.32676840  0.14749140  1
  C  C382  1  0.35250860  0.67323160  0.14749140  1
  C  C383  1  0.35250860  0.32676840  0.85250860  1
  H  H384  1  0.14200000  0.18440000  0.14200000  1
  H  H385  1  0.85800000  0.81560000  0.14200000  1
  H  H386  1  0.85800000  0.18440000  0.85800000  1
  H  H387  1  0.14200000  0.81560000  0.85800000  1
  H  H388  1  0.14200000  0.14200000  0.18440000  1
  H  H389  1  0.14200000  0.85800000  0.81560000  1
  H  H390  1  0.85800000  0.85800000  0.18440000  1
  H  H391  1  0.85800000  0.14200000  0.81560000  1
  H  H392  1  0.18440000  0.14200000  0.14200000  1
  H  H393  1  0.81560000  0.14200000  0.85800000  1
  H  H394  1  0.18440000  0.85800000  0.85800000  1
  H  H395  1  0.81560000  0.85800000  0.14200000  1
  H  H396  1  0.18440000  0.14200000  0.85800000  1
  H  H397  1  0.81560000  0.85800000  0.85800000  1
  H  H398  1  0.18440000  0.85800000  0.14200000  1
  H  H399  1  0.81560000  0.14200000  0.14200000  1
  H  H400  1  0.14200000  0.14200000  0.81560000  1
  H  H401  1  0.85800000  0.14200000  0.18440000  1
  H  H402  1  0.85800000  0.85800000  0.81560000  1
  H  H403  1  0.14200000  0.85800000  0.18440000  1
  H  H404  1  0.14200000  0.18440000  0.85800000  1
  H  H405  1  0.14200000  0.81560000  0.14200000  1
  H  H406  1  0.85800000  0.18440000  0.14200000  1
  H  H407  1  0.85800000  0.81560000  0.85800000  1
  H  H408  1  0.14200000  0.68440000  0.64200000  1
  H  H409  1  0.85800000  0.31560000  0.64200000  1
  H  H410  1  0.85800000  0.68440000  0.35800000  1
  H  H411  1  0.14200000  0.31560000  0.35800000  1
  H  H412  1  0.14200000  0.64200000  0.68440000  1
  H  H413  1  0.14200000  0.35800000  0.31560000  1
  H  H414  1  0.85800000  0.35800000  0.68440000  1
  H  H415  1  0.85800000  0.64200000  0.31560000  1
  H  H416  1  0.18440000  0.64200000  0.64200000  1
  H  H417  1  0.81560000  0.64200000  0.35800000  1
  H  H418  1  0.18440000  0.35800000  0.35800000  1
  H  H419  1  0.81560000  0.35800000  0.64200000  1
  H  H420  1  0.18440000  0.64200000  0.35800000  1
  H  H421  1  0.81560000  0.35800000  0.35800000  1
  H  H422  1  0.18440000  0.35800000  0.64200000  1
  H  H423  1  0.81560000  0.64200000  0.64200000  1
  H  H424  1  0.14200000  0.64200000  0.31560000  1
  H  H425  1  0.85800000  0.64200000  0.68440000  1
  H  H426  1  0.85800000  0.35800000  0.31560000  1
  H  H427  1  0.14200000  0.35800000  0.68440000  1
  H  H428  1  0.14200000  0.68440000  0.35800000  1
  H  H429  1  0.14200000  0.31560000  0.64200000  1
  H  H430  1  0.85800000  0.68440000  0.64200000  1
  H  H431  1  0.85800000  0.31560000  0.35800000  1
  H  H432  1  0.64200000  0.18440000  0.64200000  1
  H  H433  1  0.35800000  0.81560000  0.64200000  1
  H  H434  1  0.35800000  0.18440000  0.35800000  1
  H  H435  1  0.64200000  0.81560000  0.35800000  1
  H  H436  1  0.64200000  0.14200000  0.68440000  1
  H  H437  1  0.64200000  0.85800000  0.31560000  1
  H  H438  1  0.35800000  0.85800000  0.68440000  1
  H  H439  1  0.35800000  0.14200000  0.31560000  1
  H  H440  1  0.68440000  0.14200000  0.64200000  1
  H  H441  1  0.31560000  0.14200000  0.35800000  1
  H  H442  1  0.68440000  0.85800000  0.35800000  1
  H  H443  1  0.31560000  0.85800000  0.64200000  1
  H  H444  1  0.68440000  0.14200000  0.35800000  1
  H  H445  1  0.31560000  0.85800000  0.35800000  1
  H  H446  1  0.68440000  0.85800000  0.64200000  1
  H  H447  1  0.31560000  0.14200000  0.64200000  1
  H  H448  1  0.64200000  0.14200000  0.31560000  1
  H  H449  1  0.35800000  0.14200000  0.68440000  1
  H  H450  1  0.35800000  0.85800000  0.31560000  1
  H  H451  1  0.64200000  0.85800000  0.68440000  1
  H  H452  1  0.64200000  0.18440000  0.35800000  1
  H  H453  1  0.64200000  0.81560000  0.64200000  1
  H  H454  1  0.35800000  0.18440000  0.64200000  1
  H  H455  1  0.35800000  0.81560000  0.35800000  1
  H  H456  1  0.64200000  0.68440000  0.14200000  1
  H  H457  1  0.35800000  0.31560000  0.14200000  1
  H  H458  1  0.35800000  0.68440000  0.85800000  1
  H  H459  1  0.64200000  0.31560000  0.85800000  1
  H  H460  1  0.64200000  0.64200000  0.18440000  1
  H  H461  1  0.64200000  0.35800000  0.81560000  1
  H  H462  1  0.35800000  0.35800000  0.18440000  1
  H  H463  1  0.35800000  0.64200000  0.81560000  1
  H  H464  1  0.68440000  0.64200000  0.14200000  1
  H  H465  1  0.31560000  0.64200000  0.85800000  1
  H  H466  1  0.68440000  0.35800000  0.85800000  1
  H  H467  1  0.31560000  0.35800000  0.14200000  1
  H  H468  1  0.68440000  0.64200000  0.85800000  1
  H  H469  1  0.31560000  0.35800000  0.85800000  1
  H  H470  1  0.68440000  0.35800000  0.14200000  1
  H  H471  1  0.31560000  0.64200000  0.14200000  1
  H  H472  1  0.64200000  0.64200000  0.81560000  1
  H  H473  1  0.35800000  0.64200000  0.18440000  1
  H  H474  1  0.35800000  0.35800000  0.81560000  1
  H  H475  1  0.64200000  0.35800000  0.18440000  1
  H  H476  1  0.64200000  0.68440000  0.85800000  1
  H  H477  1  0.64200000  0.31560000  0.14200000  1
  H  H478  1  0.35800000  0.68440000  0.14200000  1
  H  H479  1  0.35800000  0.31560000  0.85800000  1
  C  C480  1  0.13880160  0.16460150  0.16460150  1
  C  C481  1  0.86119840  0.83539850  0.16460150  1
  C  C482  1  0.86119840  0.16460150  0.83539850  1
  C  C483  1  0.13880160  0.83539850  0.83539850  1
  C  C484  1  0.16460150  0.13880160  0.16460150  1
  C  C485  1  0.16460150  0.86119840  0.83539850  1
  C  C486  1  0.83539850  0.86119840  0.16460150  1
  C  C487  1  0.83539850  0.13880160  0.83539850  1
  C  C488  1  0.16460150  0.16460150  0.13880160  1
  C  C489  1  0.83539850  0.16460150  0.86119840  1
  C  C490  1  0.16460150  0.83539850  0.86119840  1
  C  C491  1  0.83539850  0.83539850  0.13880160  1
  C  C492  1  0.16460150  0.13880160  0.83539850  1
  C  C493  1  0.83539850  0.86119840  0.83539850  1
  C  C494  1  0.16460150  0.86119840  0.16460150  1
  C  C495  1  0.83539850  0.13880160  0.16460150  1
  C  C496  1  0.13880160  0.16460150  0.83539850  1
  C  C497  1  0.86119840  0.16460150  0.16460150  1
  C  C498  1  0.86119840  0.83539850  0.83539850  1
  C  C499  1  0.13880160  0.83539850  0.16460150  1
  C  C500  1  0.16460150  0.16460150  0.86119840  1
  C  C501  1  0.16460150  0.83539850  0.13880160  1
  C  C502  1  0.83539850  0.16460150  0.13880160  1
  C  C503  1  0.83539850  0.83539850  0.86119840  1
  C  C504  1  0.13880160  0.66460150  0.66460150  1
  C  C505  1  0.86119840  0.33539850  0.66460150  1
  C  C506  1  0.86119840  0.66460150  0.33539850  1
  C  C507  1  0.13880160  0.33539850  0.33539850  1
  C  C508  1  0.16460150  0.63880160  0.66460150  1
  C  C509  1  0.16460150  0.36119840  0.33539850  1
  C  C510  1  0.83539850  0.36119840  0.66460150  1
  C  C511  1  0.83539850  0.63880160  0.33539850  1
  C  C512  1  0.16460150  0.66460150  0.63880160  1
  C  C513  1  0.83539850  0.66460150  0.36119840  1
  C  C514  1  0.16460150  0.33539850  0.36119840  1
  C  C515  1  0.83539850  0.33539850  0.63880160  1
  C  C516  1  0.16460150  0.63880160  0.33539850  1
  C  C517  1  0.83539850  0.36119840  0.33539850  1
  C  C518  1  0.16460150  0.36119840  0.66460150  1
  C  C519  1  0.83539850  0.63880160  0.66460150  1
  C  C520  1  0.13880160  0.66460150  0.33539850  1
  C  C521  1  0.86119840  0.66460150  0.66460150  1
  C  C522  1  0.86119840  0.33539850  0.33539850  1
  C  C523  1  0.13880160  0.33539850  0.66460150  1
  C  C524  1  0.16460150  0.66460150  0.36119840  1
  C  C525  1  0.16460150  0.33539850  0.63880160  1
  C  C526  1  0.83539850  0.66460150  0.63880160  1
  C  C527  1  0.83539850  0.33539850  0.36119840  1
  C  C528  1  0.63880160  0.16460150  0.66460150  1
  C  C529  1  0.36119840  0.83539850  0.66460150  1
  C  C530  1  0.36119840  0.16460150  0.33539850  1
  C  C531  1  0.63880160  0.83539850  0.33539850  1
  C  C532  1  0.66460150  0.13880160  0.66460150  1
  C  C533  1  0.66460150  0.86119840  0.33539850  1
  C  C534  1  0.33539850  0.86119840  0.66460150  1
  C  C535  1  0.33539850  0.13880160  0.33539850  1
  C  C536  1  0.66460150  0.16460150  0.63880160  1
  C  C537  1  0.33539850  0.16460150  0.36119840  1
  C  C538  1  0.66460150  0.83539850  0.36119840  1
  C  C539  1  0.33539850  0.83539850  0.63880160  1
  C  C540  1  0.66460150  0.13880160  0.33539850  1
  C  C541  1  0.33539850  0.86119840  0.33539850  1
  C  C542  1  0.66460150  0.86119840  0.66460150  1
  C  C543  1  0.33539850  0.13880160  0.66460150  1
  C  C544  1  0.63880160  0.16460150  0.33539850  1
  C  C545  1  0.36119840  0.16460150  0.66460150  1
  C  C546  1  0.36119840  0.83539850  0.33539850  1
  C  C547  1  0.63880160  0.83539850  0.66460150  1
  C  C548  1  0.66460150  0.16460150  0.36119840  1
  C  C549  1  0.66460150  0.83539850  0.63880160  1
  C  C550  1  0.33539850  0.16460150  0.63880160  1
  C  C551  1  0.33539850  0.83539850  0.36119840  1
  C  C552  1  0.63880160  0.66460150  0.16460150  1
  C  C553  1  0.36119840  0.33539850  0.16460150  1
  C  C554  1  0.36119840  0.66460150  0.83539850  1
  C  C555  1  0.63880160  0.33539850  0.83539850  1
  C  C556  1  0.66460150  0.63880160  0.16460150  1
  C  C557  1  0.66460150  0.36119840  0.83539850  1
  C  C558  1  0.33539850  0.36119840  0.16460150  1
  C  C559  1  0.33539850  0.63880160  0.83539850  1
  C  C560  1  0.66460150  0.66460150  0.13880160  1
  C  C561  1  0.33539850  0.66460150  0.86119840  1
  C  C562  1  0.66460150  0.33539850  0.86119840  1
  C  C563  1  0.33539850  0.33539850  0.13880160  1
  C  C564  1  0.66460150  0.63880160  0.83539850  1
  C  C565  1  0.33539850  0.36119840  0.83539850  1
  C  C566  1  0.66460150  0.36119840  0.16460150  1
  C  C567  1  0.33539850  0.63880160  0.16460150  1
  C  C568  1  0.63880160  0.66460150  0.83539850  1
  C  C569  1  0.36119840  0.66460150  0.16460150  1
  C  C570  1  0.36119840  0.33539850  0.83539850  1
  C  C571  1  0.63880160  0.33539850  0.16460150  1
  C  C572  1  0.66460150  0.66460150  0.86119840  1
  C  C573  1  0.66460150  0.33539850  0.13880160  1
  C  C574  1  0.33539850  0.66460150  0.13880160  1
  C  C575  1  0.33539850  0.33539850  0.86119840  1
  C  C576  1  0.12252000  0.17570170  0.17570170  1
  C  C577  1  0.87748000  0.82429830  0.17570170  1
  C  C578  1  0.87748000  0.17570170  0.82429830  1
  C  C579  1  0.12252000  0.82429830  0.82429830  1
  C  C580  1  0.17570170  0.12252000  0.17570170  1
  C  C581  1  0.17570170  0.87748000  0.82429830  1
  C  C582  1  0.82429830  0.87748000  0.17570170  1
  C  C583  1  0.82429830  0.12252000  0.82429830  1
  C  C584  1  0.17570170  0.17570170  0.12252000  1
  C  C585  1  0.82429830  0.17570170  0.87748000  1
  C  C586  1  0.17570170  0.82429830  0.87748000  1
  C  C587  1  0.82429830  0.82429830  0.12252000  1
  C  C588  1  0.17570170  0.12252000  0.82429830  1
  C  C589  1  0.82429830  0.87748000  0.82429830  1
  C  C590  1  0.17570170  0.87748000  0.17570170  1
  C  C591  1  0.82429830  0.12252000  0.17570170  1
  C  C592  1  0.12252000  0.17570170  0.82429830  1
  C  C593  1  0.87748000  0.17570170  0.17570170  1
  C  C594  1  0.87748000  0.82429830  0.82429830  1
  C  C595  1  0.12252000  0.82429830  0.17570170  1
  C  C596  1  0.17570170  0.17570170  0.87748000  1
  C  C597  1  0.17570170  0.82429830  0.12252000  1
  C  C598  1  0.82429830  0.17570170  0.12252000  1
  C  C599  1  0.82429830  0.82429830  0.87748000  1
  C  C600  1  0.12252000  0.67570170  0.67570170  1
  C  C601  1  0.87748000  0.32429830  0.67570170  1
  C  C602  1  0.87748000  0.67570170  0.32429830  1
  C  C603  1  0.12252000  0.32429830  0.32429830  1
  C  C604  1  0.17570170  0.62252000  0.67570170  1
  C  C605  1  0.17570170  0.37748000  0.32429830  1
  C  C606  1  0.82429830  0.37748000  0.67570170  1
  C  C607  1  0.82429830  0.62252000  0.32429830  1
  C  C608  1  0.17570170  0.67570170  0.62252000  1
  C  C609  1  0.82429830  0.67570170  0.37748000  1
  C  C610  1  0.17570170  0.32429830  0.37748000  1
  C  C611  1  0.82429830  0.32429830  0.62252000  1
  C  C612  1  0.17570170  0.62252000  0.32429830  1
  C  C613  1  0.82429830  0.37748000  0.32429830  1
  C  C614  1  0.17570170  0.37748000  0.67570170  1
  C  C615  1  0.82429830  0.62252000  0.67570170  1
  C  C616  1  0.12252000  0.67570170  0.32429830  1
  C  C617  1  0.87748000  0.67570170  0.67570170  1
  C  C618  1  0.87748000  0.32429830  0.32429830  1
  C  C619  1  0.12252000  0.32429830  0.67570170  1
  C  C620  1  0.17570170  0.67570170  0.37748000  1
  C  C621  1  0.17570170  0.32429830  0.62252000  1
  C  C622  1  0.82429830  0.67570170  0.62252000  1
  C  C623  1  0.82429830  0.32429830  0.37748000  1
  C  C624  1  0.62252000  0.17570170  0.67570170  1
  C  C625  1  0.37748000  0.82429830  0.67570170  1
  C  C626  1  0.37748000  0.17570170  0.32429830  1
  C  C627  1  0.62252000  0.82429830  0.32429830  1
  C  C628  1  0.67570170  0.12252000  0.67570170  1
  C  C629  1  0.67570170  0.87748000  0.32429830  1
  C  C630  1  0.32429830  0.87748000  0.67570170  1
  C  C631  1  0.32429830  0.12252000  0.32429830  1
  C  C632  1  0.67570170  0.17570170  0.62252000  1
  C  C633  1  0.32429830  0.17570170  0.37748000  1
  C  C634  1  0.67570170  0.82429830  0.37748000  1
  C  C635  1  0.32429830  0.82429830  0.62252000  1
  C  C636  1  0.67570170  0.12252000  0.32429830  1
  C  C637  1  0.32429830  0.87748000  0.32429830  1
  C  C638  1  0.67570170  0.87748000  0.67570170  1
  C  C639  1  0.32429830  0.12252000  0.67570170  1
  C  C640  1  0.62252000  0.17570170  0.32429830  1
  C  C641  1  0.37748000  0.17570170  0.67570170  1
  C  C642  1  0.37748000  0.82429830  0.32429830  1
  C  C643  1  0.62252000  0.82429830  0.67570170  1
  C  C644  1  0.67570170  0.17570170  0.37748000  1
  C  C645  1  0.67570170  0.82429830  0.62252000  1
  C  C646  1  0.32429830  0.17570170  0.62252000  1
  C  C647  1  0.32429830  0.82429830  0.37748000  1
  C  C648  1  0.62252000  0.67570170  0.17570170  1
  C  C649  1  0.37748000  0.32429830  0.17570170  1
  C  C650  1  0.37748000  0.67570170  0.82429830  1
  C  C651  1  0.62252000  0.32429830  0.82429830  1
  C  C652  1  0.67570170  0.62252000  0.17570170  1
  C  C653  1  0.67570170  0.37748000  0.82429830  1
  C  C654  1  0.32429830  0.37748000  0.17570170  1
  C  C655  1  0.32429830  0.62252000  0.82429830  1
  C  C656  1  0.67570170  0.67570170  0.12252000  1
  C  C657  1  0.32429830  0.67570170  0.87748000  1
  C  C658  1  0.67570170  0.32429830  0.87748000  1
  C  C659  1  0.32429830  0.32429830  0.12252000  1
  C  C660  1  0.67570170  0.62252000  0.82429830  1
  C  C661  1  0.32429830  0.37748000  0.82429830  1
  C  C662  1  0.67570170  0.37748000  0.17570170  1
  C  C663  1  0.32429830  0.62252000  0.17570170  1
  C  C664  1  0.62252000  0.67570170  0.82429830  1
  C  C665  1  0.37748000  0.67570170  0.17570170  1
  C  C666  1  0.37748000  0.32429830  0.82429830  1
  C  C667  1  0.62252000  0.32429830  0.17570170  1
  C  C668  1  0.67570170  0.67570170  0.87748000  1
  C  C669  1  0.67570170  0.32429830  0.12252000  1
  C  C670  1  0.32429830  0.67570170  0.12252000  1
  C  C671  1  0.32429830  0.32429830  0.87748000  1
  C  C672  1  0.11476180  0.19329150  0.16750160  1
  C  C673  1  0.88523820  0.80670850  0.16750160  1
  C  C674  1  0.88523820  0.19329150  0.83249840  1
  C  C675  1  0.11476180  0.80670850  0.83249840  1
  C  C676  1  0.16750160  0.11476180  0.19329150  1
  C  C677  1  0.16750160  0.88523820  0.80670850  1
  C  C678  1  0.83249840  0.88523820  0.19329150  1
  C  C679  1  0.83249840  0.11476180  0.80670850  1
  C  C680  1  0.19329150  0.16750160  0.11476180  1
  C  C681  1  0.80670850  0.16750160  0.88523820  1
  C  C682  1  0.19329150  0.83249840  0.88523820  1
  C  C683  1  0.80670850  0.83249840  0.11476180  1
  C  C684  1  0.19329150  0.11476180  0.83249840  1
  C  C685  1  0.80670850  0.88523820  0.83249840  1
  C  C686  1  0.19329150  0.88523820  0.16750160  1
  C  C687  1  0.80670850  0.11476180  0.16750160  1
  C  C688  1  0.11476180  0.16750160  0.80670850  1
  C  C689  1  0.88523820  0.16750160  0.19329150  1
  C  C690  1  0.88523820  0.83249840  0.80670850  1
  C  C691  1  0.11476180  0.83249840  0.19329150  1
  C  C692  1  0.16750160  0.19329150  0.88523820  1
  C  C693  1  0.16750160  0.80670850  0.11476180  1
  C  C694  1  0.83249840  0.19329150  0.11476180  1
  C  C695  1  0.83249840  0.80670850  0.88523820  1
  C  C696  1  0.11476180  0.69329150  0.66750160  1
  C  C697  1  0.88523820  0.30670850  0.66750160  1
  C  C698  1  0.88523820  0.69329150  0.33249840  1
  C  C699  1  0.11476180  0.30670850  0.33249840  1
  C  C700  1  0.16750160  0.61476180  0.69329150  1
  C  C701  1  0.16750160  0.38523820  0.30670850  1
  C  C702  1  0.83249840  0.38523820  0.69329150  1
  C  C703  1  0.83249840  0.61476180  0.30670850  1
  C  C704  1  0.19329150  0.66750160  0.61476180  1
  C  C705  1  0.80670850  0.66750160  0.38523820  1
  C  C706  1  0.19329150  0.33249840  0.38523820  1
  C  C707  1  0.80670850  0.33249840  0.61476180  1
  C  C708  1  0.19329150  0.61476180  0.33249840  1
  C  C709  1  0.80670850  0.38523820  0.33249840  1
  C  C710  1  0.19329150  0.38523820  0.66750160  1
  C  C711  1  0.80670850  0.61476180  0.66750160  1
  C  C712  1  0.11476180  0.66750160  0.30670850  1
  C  C713  1  0.88523820  0.66750160  0.69329150  1
  C  C714  1  0.88523820  0.33249840  0.30670850  1
  C  C715  1  0.11476180  0.33249840  0.69329150  1
  C  C716  1  0.16750160  0.69329150  0.38523820  1
  C  C717  1  0.16750160  0.30670850  0.61476180  1
  C  C718  1  0.83249840  0.69329150  0.61476180  1
  C  C719  1  0.83249840  0.30670850  0.38523820  1
  C  C720  1  0.61476180  0.19329150  0.66750160  1
  C  C721  1  0.38523820  0.80670850  0.66750160  1
  C  C722  1  0.38523820  0.19329150  0.33249840  1
  C  C723  1  0.61476180  0.80670850  0.33249840  1
  C  C724  1  0.66750160  0.11476180  0.69329150  1
  C  C725  1  0.66750160  0.88523820  0.30670850  1
  C  C726  1  0.33249840  0.88523820  0.69329150  1
  C  C727  1  0.33249840  0.11476180  0.30670850  1
  C  C728  1  0.69329150  0.16750160  0.61476180  1
  C  C729  1  0.30670850  0.16750160  0.38523820  1
  C  C730  1  0.69329150  0.83249840  0.38523820  1
  C  C731  1  0.30670850  0.83249840  0.61476180  1
  C  C732  1  0.69329150  0.11476180  0.33249840  1
  C  C733  1  0.30670850  0.88523820  0.33249840  1
  C  C734  1  0.69329150  0.88523820  0.66750160  1
  C  C735  1  0.30670850  0.11476180  0.66750160  1
  C  C736  1  0.61476180  0.16750160  0.30670850  1
  C  C737  1  0.38523820  0.16750160  0.69329150  1
  C  C738  1  0.38523820  0.83249840  0.30670850  1
  C  C739  1  0.61476180  0.83249840  0.69329150  1
  C  C740  1  0.66750160  0.19329150  0.38523820  1
  C  C741  1  0.66750160  0.80670850  0.61476180  1
  C  C742  1  0.33249840  0.19329150  0.61476180  1
  C  C743  1  0.33249840  0.80670850  0.38523820  1
  C  C744  1  0.61476180  0.69329150  0.16750160  1
  C  C745  1  0.38523820  0.30670850  0.16750160  1
  C  C746  1  0.38523820  0.69329150  0.83249840  1
  C  C747  1  0.61476180  0.30670850  0.83249840  1
  C  C748  1  0.66750160  0.61476180  0.19329150  1
  C  C749  1  0.66750160  0.38523820  0.80670850  1
  C  C750  1  0.33249840  0.38523820  0.19329150  1
  C  C751  1  0.33249840  0.61476180  0.80670850  1
  C  C752  1  0.69329150  0.66750160  0.11476180  1
  C  C753  1  0.30670850  0.66750160  0.88523820  1
  C  C754  1  0.69329150  0.33249840  0.88523820  1
  C  C755  1  0.30670850  0.33249840  0.11476180  1
  C  C756  1  0.69329150  0.61476180  0.83249840  1
  C  C757  1  0.30670850  0.38523820  0.83249840  1
  C  C758  1  0.69329150  0.38523820  0.16750160  1
  C  C759  1  0.30670850  0.61476180  0.16750160  1
  C  C760  1  0.61476180  0.66750160  0.80670850  1
  C  C761  1  0.38523820  0.66750160  0.19329150  1
  C  C762  1  0.38523820  0.33249840  0.80670850  1
  C  C763  1  0.61476180  0.33249840  0.19329150  1
  C  C764  1  0.66750160  0.69329150  0.88523820  1
  C  C765  1  0.66750160  0.30670850  0.11476180  1
  C  C766  1  0.33249840  0.69329150  0.11476180  1
  C  C767  1  0.33249840  0.30670850  0.88523820  1
  C  C768  1  0.88523820  0.80670850  0.83249840  1
  C  C769  1  0.11476180  0.19329150  0.83249840  1
  C  C770  1  0.11476180  0.80670850  0.16750160  1
  C  C771  1  0.88523820  0.19329150  0.16750160  1
  C  C772  1  0.83249840  0.88523820  0.80670850  1
  C  C773  1  0.83249840  0.11476180  0.19329150  1
  C  C774  1  0.16750160  0.11476180  0.80670850  1
  C  C775  1  0.16750160  0.88523820  0.19329150  1
  C  C776  1  0.80670850  0.83249840  0.88523820  1
  C  C777  1  0.19329150  0.83249840  0.11476180  1
  C  C778  1  0.80670850  0.16750160  0.11476180  1
  C  C779  1  0.19329150  0.16750160  0.88523820  1
  C  C780  1  0.80670850  0.88523820  0.16750160  1
  C  C781  1  0.19329150  0.11476180  0.16750160  1
  C  C782  1  0.80670850  0.11476180  0.83249840  1
  C  C783  1  0.19329150  0.88523820  0.83249840  1
  C  C784  1  0.88523820  0.83249840  0.19329150  1
  C  C785  1  0.11476180  0.83249840  0.80670850  1
  C  C786  1  0.11476180  0.16750160  0.19329150  1
  C  C787  1  0.88523820  0.16750160  0.80670850  1
  C  C788  1  0.83249840  0.80670850  0.11476180  1
  C  C789  1  0.83249840  0.19329150  0.88523820  1
  C  C790  1  0.16750160  0.80670850  0.88523820  1
  C  C791  1  0.16750160  0.19329150  0.11476180  1
  C  C792  1  0.88523820  0.30670850  0.33249840  1
  C  C793  1  0.11476180  0.69329150  0.33249840  1
  C  C794  1  0.11476180  0.30670850  0.66750160  1
  C  C795  1  0.88523820  0.69329150  0.66750160  1
  C  C796  1  0.83249840  0.38523820  0.30670850  1
  C  C797  1  0.83249840  0.61476180  0.69329150  1
  C  C798  1  0.16750160  0.61476180  0.30670850  1
  C  C799  1  0.16750160  0.38523820  0.69329150  1
  C  C800  1  0.80670850  0.33249840  0.38523820  1
  C  C801  1  0.19329150  0.33249840  0.61476180  1
  C  C802  1  0.80670850  0.66750160  0.61476180  1
  C  C803  1  0.19329150  0.66750160  0.38523820  1
  C  C804  1  0.80670850  0.38523820  0.66750160  1
  C  C805  1  0.19329150  0.61476180  0.66750160  1
  C  C806  1  0.80670850  0.61476180  0.33249840  1
  C  C807  1  0.19329150  0.38523820  0.33249840  1
  C  C808  1  0.88523820  0.33249840  0.69329150  1
  C  C809  1  0.11476180  0.33249840  0.30670850  1
  C  C810  1  0.11476180  0.66750160  0.69329150  1
  C  C811  1  0.88523820  0.66750160  0.30670850  1
  C  C812  1  0.83249840  0.30670850  0.61476180  1
  C  C813  1  0.83249840  0.69329150  0.38523820  1
  C  C814  1  0.16750160  0.30670850  0.38523820  1
  C  C815  1  0.16750160  0.69329150  0.61476180  1
  C  C816  1  0.38523820  0.80670850  0.33249840  1
  C  C817  1  0.61476180  0.19329150  0.33249840  1
  C  C818  1  0.61476180  0.80670850  0.66750160  1
  C  C819  1  0.38523820  0.19329150  0.66750160  1
  C  C820  1  0.33249840  0.88523820  0.30670850  1
  C  C821  1  0.33249840  0.11476180  0.69329150  1
  C  C822  1  0.66750160  0.11476180  0.30670850  1
  C  C823  1  0.66750160  0.88523820  0.69329150  1
  C  C824  1  0.30670850  0.83249840  0.38523820  1
  C  C825  1  0.69329150  0.83249840  0.61476180  1
  C  C826  1  0.30670850  0.16750160  0.61476180  1
  C  C827  1  0.69329150  0.16750160  0.38523820  1
  C  C828  1  0.30670850  0.88523820  0.66750160  1
  C  C829  1  0.69329150  0.11476180  0.66750160  1
  C  C830  1  0.30670850  0.11476180  0.33249840  1
  C  C831  1  0.69329150  0.88523820  0.33249840  1
  C  C832  1  0.38523820  0.83249840  0.69329150  1
  C  C833  1  0.61476180  0.83249840  0.30670850  1
  C  C834  1  0.61476180  0.16750160  0.69329150  1
  C  C835  1  0.38523820  0.16750160  0.30670850  1
  C  C836  1  0.33249840  0.80670850  0.61476180  1
  C  C837  1  0.33249840  0.19329150  0.38523820  1
  C  C838  1  0.66750160  0.80670850  0.38523820  1
  C  C839  1  0.66750160  0.19329150  0.61476180  1
  C  C840  1  0.38523820  0.30670850  0.83249840  1
  C  C841  1  0.61476180  0.69329150  0.83249840  1
  C  C842  1  0.61476180  0.30670850  0.16750160  1
  C  C843  1  0.38523820  0.69329150  0.16750160  1
  C  C844  1  0.33249840  0.38523820  0.80670850  1
  C  C845  1  0.33249840  0.61476180  0.19329150  1
  C  C846  1  0.66750160  0.61476180  0.80670850  1
  C  C847  1  0.66750160  0.38523820  0.19329150  1
  C  C848  1  0.30670850  0.33249840  0.88523820  1
  C  C849  1  0.69329150  0.33249840  0.11476180  1
  C  C850  1  0.30670850  0.66750160  0.11476180  1
  C  C851  1  0.69329150  0.66750160  0.88523820  1
  C  C852  1  0.30670850  0.38523820  0.16750160  1
  C  C853  1  0.69329150  0.61476180  0.16750160  1
  C  C854  1  0.30670850  0.61476180  0.83249840  1
  C  C855  1  0.69329150  0.38523820  0.83249840  1
  C  C856  1  0.38523820  0.33249840  0.19329150  1
  C  C857  1  0.61476180  0.33249840  0.80670850  1
  C  C858  1  0.61476180  0.66750160  0.19329150  1
  C  C859  1  0.38523820  0.66750160  0.80670850  1
  C  C860  1  0.33249840  0.30670850  0.11476180  1
  C  C861  1  0.33249840  0.69329150  0.88523820  1
  C  C862  1  0.66750160  0.30670850  0.88523820  1
  C  C863  1  0.66750160  0.69329150  0.11476180  1
  H  H864  1  0.12040000  0.19870000  0.15640000  1
  H  H865  1  0.87960000  0.80130000  0.15640000  1
  H  H866  1  0.87960000  0.19870000  0.84360000  1
  H  H867  1  0.12040000  0.80130000  0.84360000  1
  H  H868  1  0.15640000  0.12040000  0.19870000  1
  H  H869  1  0.15640000  0.87960000  0.80130000  1
  H  H870  1  0.84360000  0.87960000  0.19870000  1
  H  H871  1  0.84360000  0.12040000  0.80130000  1
  H  H872  1  0.19870000  0.15640000  0.12040000  1
  H  H873  1  0.80130000  0.15640000  0.87960000  1
  H  H874  1  0.19870000  0.84360000  0.87960000  1
  H  H875  1  0.80130000  0.84360000  0.12040000  1
  H  H876  1  0.19870000  0.12040000  0.84360000  1
  H  H877  1  0.80130000  0.87960000  0.84360000  1
  H  H878  1  0.19870000  0.87960000  0.15640000  1
  H  H879  1  0.80130000  0.12040000  0.15640000  1
  H  H880  1  0.12040000  0.15640000  0.80130000  1
  H  H881  1  0.87960000  0.15640000  0.19870000  1
  H  H882  1  0.87960000  0.84360000  0.80130000  1
  H  H883  1  0.12040000  0.84360000  0.19870000  1
  H  H884  1  0.15640000  0.19870000  0.87960000  1
  H  H885  1  0.15640000  0.80130000  0.12040000  1
  H  H886  1  0.84360000  0.19870000  0.12040000  1
  H  H887  1  0.84360000  0.80130000  0.87960000  1
  H  H888  1  0.12040000  0.69870000  0.65640000  1
  H  H889  1  0.87960000  0.30130000  0.65640000  1
  H  H890  1  0.87960000  0.69870000  0.34360000  1
  H  H891  1  0.12040000  0.30130000  0.34360000  1
  H  H892  1  0.15640000  0.62040000  0.69870000  1
  H  H893  1  0.15640000  0.37960000  0.30130000  1
  H  H894  1  0.84360000  0.37960000  0.69870000  1
  H  H895  1  0.84360000  0.62040000  0.30130000  1
  H  H896  1  0.19870000  0.65640000  0.62040000  1
  H  H897  1  0.80130000  0.65640000  0.37960000  1
  H  H898  1  0.19870000  0.34360000  0.37960000  1
  H  H899  1  0.80130000  0.34360000  0.62040000  1
  H  H900  1  0.19870000  0.62040000  0.34360000  1
  H  H901  1  0.80130000  0.37960000  0.34360000  1
  H  H902  1  0.19870000  0.37960000  0.65640000  1
  H  H903  1  0.80130000  0.62040000  0.65640000  1
  H  H904  1  0.12040000  0.65640000  0.30130000  1
  H  H905  1  0.87960000  0.65640000  0.69870000  1
  H  H906  1  0.87960000  0.34360000  0.30130000  1
  H  H907  1  0.12040000  0.34360000  0.69870000  1
  H  H908  1  0.15640000  0.69870000  0.37960000  1
  H  H909  1  0.15640000  0.30130000  0.62040000  1
  H  H910  1  0.84360000  0.69870000  0.62040000  1
  H  H911  1  0.84360000  0.30130000  0.37960000  1
  H  H912  1  0.62040000  0.19870000  0.65640000  1
  H  H913  1  0.37960000  0.80130000  0.65640000  1
  H  H914  1  0.37960000  0.19870000  0.34360000  1
  H  H915  1  0.62040000  0.80130000  0.34360000  1
  H  H916  1  0.65640000  0.12040000  0.69870000  1
  H  H917  1  0.65640000  0.87960000  0.30130000  1
  H  H918  1  0.34360000  0.87960000  0.69870000  1
  H  H919  1  0.34360000  0.12040000  0.30130000  1
  H  H920  1  0.69870000  0.15640000  0.62040000  1
  H  H921  1  0.30130000  0.15640000  0.37960000  1
  H  H922  1  0.69870000  0.84360000  0.37960000  1
  H  H923  1  0.30130000  0.84360000  0.62040000  1
  H  H924  1  0.69870000  0.12040000  0.34360000  1
  H  H925  1  0.30130000  0.87960000  0.34360000  1
  H  H926  1  0.69870000  0.87960000  0.65640000  1
  H  H927  1  0.30130000  0.12040000  0.65640000  1
  H  H928  1  0.62040000  0.15640000  0.30130000  1
  H  H929  1  0.37960000  0.15640000  0.69870000  1
  H  H930  1  0.37960000  0.84360000  0.30130000  1
  H  H931  1  0.62040000  0.84360000  0.69870000  1
  H  H932  1  0.65640000  0.19870000  0.37960000  1
  H  H933  1  0.65640000  0.80130000  0.62040000  1
  H  H934  1  0.34360000  0.19870000  0.62040000  1
  H  H935  1  0.34360000  0.80130000  0.37960000  1
  H  H936  1  0.62040000  0.69870000  0.15640000  1
  H  H937  1  0.37960000  0.30130000  0.15640000  1
  H  H938  1  0.37960000  0.69870000  0.84360000  1
  H  H939  1  0.62040000  0.30130000  0.84360000  1
  H  H940  1  0.65640000  0.62040000  0.19870000  1
  H  H941  1  0.65640000  0.37960000  0.80130000  1
  H  H942  1  0.34360000  0.37960000  0.19870000  1
  H  H943  1  0.34360000  0.62040000  0.80130000  1
  H  H944  1  0.69870000  0.65640000  0.12040000  1
  H  H945  1  0.30130000  0.65640000  0.87960000  1
  H  H946  1  0.69870000  0.34360000  0.87960000  1
  H  H947  1  0.30130000  0.34360000  0.12040000  1
  H  H948  1  0.69870000  0.62040000  0.84360000  1
  H  H949  1  0.30130000  0.37960000  0.84360000  1
  H  H950  1  0.69870000  0.37960000  0.15640000  1
  H  H951  1  0.30130000  0.62040000  0.15640000  1
  H  H952  1  0.62040000  0.65640000  0.80130000  1
  H  H953  1  0.37960000  0.65640000  0.19870000  1
  H  H954  1  0.37960000  0.34360000  0.80130000  1
  H  H955  1  0.62040000  0.34360000  0.19870000  1
  H  H956  1  0.65640000  0.69870000  0.87960000  1
  H  H957  1  0.65640000  0.30130000  0.12040000  1
  H  H958  1  0.34360000  0.69870000  0.12040000  1
  H  H959  1  0.34360000  0.30130000  0.87960000  1
  H  H960  1  0.87960000  0.80130000  0.84360000  1
  H  H961  1  0.12040000  0.19870000  0.84360000  1
  H  H962  1  0.12040000  0.80130000  0.15640000  1
  H  H963  1  0.87960000  0.19870000  0.15640000  1
  H  H964  1  0.84360000  0.87960000  0.80130000  1
  H  H965  1  0.84360000  0.12040000  0.19870000  1
  H  H966  1  0.15640000  0.12040000  0.80130000  1
  H  H967  1  0.15640000  0.87960000  0.19870000  1
  H  H968  1  0.80130000  0.84360000  0.87960000  1
  H  H969  1  0.19870000  0.84360000  0.12040000  1
  H  H970  1  0.80130000  0.15640000  0.12040000  1
  H  H971  1  0.19870000  0.15640000  0.87960000  1
  H  H972  1  0.80130000  0.87960000  0.15640000  1
  H  H973  1  0.19870000  0.12040000  0.15640000  1
  H  H974  1  0.80130000  0.12040000  0.84360000  1
  H  H975  1  0.19870000  0.87960000  0.84360000  1
  H  H976  1  0.87960000  0.84360000  0.19870000  1
  H  H977  1  0.12040000  0.84360000  0.80130000  1
  H  H978  1  0.12040000  0.15640000  0.19870000  1
  H  H979  1  0.87960000  0.15640000  0.80130000  1
  H  H980  1  0.84360000  0.80130000  0.12040000  1
  H  H981  1  0.84360000  0.19870000  0.87960000  1
  H  H982  1  0.15640000  0.80130000  0.87960000  1
  H  H983  1  0.15640000  0.19870000  0.12040000  1
  H  H984  1  0.87960000  0.30130000  0.34360000  1
  H  H985  1  0.12040000  0.69870000  0.34360000  1
  H  H986  1  0.12040000  0.30130000  0.65640000  1
  H  H987  1  0.87960000  0.69870000  0.65640000  1
  H  H988  1  0.84360000  0.37960000  0.30130000  1
  H  H989  1  0.84360000  0.62040000  0.69870000  1
  H  H990  1  0.15640000  0.62040000  0.30130000  1
  H  H991  1  0.15640000  0.37960000  0.69870000  1
  H  H992  1  0.80130000  0.34360000  0.37960000  1
  H  H993  1  0.19870000  0.34360000  0.62040000  1
  H  H994  1  0.80130000  0.65640000  0.62040000  1
  H  H995  1  0.19870000  0.65640000  0.37960000  1
  H  H996  1  0.80130000  0.37960000  0.65640000  1
  H  H997  1  0.19870000  0.62040000  0.65640000  1
  H  H998  1  0.80130000  0.62040000  0.34360000  1
  H  H999  1  0.19870000  0.37960000  0.34360000  1
  H  H1000  1  0.87960000  0.34360000  0.69870000  1
  H  H1001  1  0.12040000  0.34360000  0.30130000  1
  H  H1002  1  0.12040000  0.65640000  0.69870000  1
  H  H1003  1  0.87960000  0.65640000  0.30130000  1
  H  H1004  1  0.84360000  0.30130000  0.62040000  1
  H  H1005  1  0.84360000  0.69870000  0.37960000  1
  H  H1006  1  0.15640000  0.30130000  0.37960000  1
  H  H1007  1  0.15640000  0.69870000  0.62040000  1
  H  H1008  1  0.37960000  0.80130000  0.34360000  1
  H  H1009  1  0.62040000  0.19870000  0.34360000  1
  H  H1010  1  0.62040000  0.80130000  0.65640000  1
  H  H1011  1  0.37960000  0.19870000  0.65640000  1
  H  H1012  1  0.34360000  0.87960000  0.30130000  1
  H  H1013  1  0.34360000  0.12040000  0.69870000  1
  H  H1014  1  0.65640000  0.12040000  0.30130000  1
  H  H1015  1  0.65640000  0.87960000  0.69870000  1
  H  H1016  1  0.30130000  0.84360000  0.37960000  1
  H  H1017  1  0.69870000  0.84360000  0.62040000  1
  H  H1018  1  0.30130000  0.15640000  0.62040000  1
  H  H1019  1  0.69870000  0.15640000  0.37960000  1
  H  H1020  1  0.30130000  0.87960000  0.65640000  1
  H  H1021  1  0.69870000  0.12040000  0.65640000  1
  H  H1022  1  0.30130000  0.12040000  0.34360000  1
  H  H1023  1  0.69870000  0.87960000  0.34360000  1
  H  H1024  1  0.37960000  0.84360000  0.69870000  1
  H  H1025  1  0.62040000  0.84360000  0.30130000  1
  H  H1026  1  0.62040000  0.15640000  0.69870000  1
  H  H1027  1  0.37960000  0.15640000  0.30130000  1
  H  H1028  1  0.34360000  0.80130000  0.62040000  1
  H  H1029  1  0.34360000  0.19870000  0.37960000  1
  H  H1030  1  0.65640000  0.80130000  0.37960000  1
  H  H1031  1  0.65640000  0.19870000  0.62040000  1
  H  H1032  1  0.37960000  0.30130000  0.84360000  1
  H  H1033  1  0.62040000  0.69870000  0.84360000  1
  H  H1034  1  0.62040000  0.30130000  0.15640000  1
  H  H1035  1  0.37960000  0.69870000  0.15640000  1
  H  H1036  1  0.34360000  0.37960000  0.80130000  1
  H  H1037  1  0.34360000  0.62040000  0.19870000  1
  H  H1038  1  0.65640000  0.62040000  0.80130000  1
  H  H1039  1  0.65640000  0.37960000  0.19870000  1
  H  H1040  1  0.30130000  0.34360000  0.87960000  1
  H  H1041  1  0.69870000  0.34360000  0.12040000  1
  H  H1042  1  0.30130000  0.65640000  0.12040000  1
  H  H1043  1  0.69870000  0.65640000  0.87960000  1
  H  H1044  1  0.30130000  0.37960000  0.15640000  1
  H  H1045  1  0.69870000  0.62040000  0.15640000  1
  H  H1046  1  0.30130000  0.62040000  0.84360000  1
  H  H1047  1  0.69870000  0.37960000  0.84360000  1
  H  H1048  1  0.37960000  0.34360000  0.19870000  1
  H  H1049  1  0.62040000  0.34360000  0.80130000  1
  H  H1050  1  0.62040000  0.65640000  0.19870000  1
  H  H1051  1  0.37960000  0.65640000  0.80130000  1
  H  H1052  1  0.34360000  0.30130000  0.12040000  1
  H  H1053  1  0.34360000  0.69870000  0.87960000  1
  H  H1054  1  0.65640000  0.30130000  0.87960000  1
  H  H1055  1  0.65640000  0.69870000  0.12040000  1
  C  C1056  1  0.09842000  0.20241190  0.17653170  1
  C  C1057  1  0.90158000  0.79758810  0.17653170  1
  C  C1058  1  0.90158000  0.20241190  0.82346830  1
  C  C1059  1  0.09842000  0.79758810  0.82346830  1
  C  C1060  1  0.17653170  0.09842000  0.20241190  1
  C  C1061  1  0.17653170  0.90158000  0.79758810  1
  C  C1062  1  0.82346830  0.90158000  0.20241190  1
  C  C1063  1  0.82346830  0.09842000  0.79758810  1
  C  C1064  1  0.20241190  0.17653170  0.09842000  1
  C  C1065  1  0.79758810  0.17653170  0.90158000  1
  C  C1066  1  0.20241190  0.82346830  0.90158000  1
  C  C1067  1  0.79758810  0.82346830  0.09842000  1
  C  C1068  1  0.20241190  0.09842000  0.82346830  1
  C  C1069  1  0.79758810  0.90158000  0.82346830  1
  C  C1070  1  0.20241190  0.90158000  0.17653170  1
  C  C1071  1  0.79758810  0.09842000  0.17653170  1
  C  C1072  1  0.09842000  0.17653170  0.79758810  1
  C  C1073  1  0.90158000  0.17653170  0.20241190  1
  C  C1074  1  0.90158000  0.82346830  0.79758810  1
  C  C1075  1  0.09842000  0.82346830  0.20241190  1
  C  C1076  1  0.17653170  0.20241190  0.90158000  1
  C  C1077  1  0.17653170  0.79758810  0.09842000  1
  C  C1078  1  0.82346830  0.20241190  0.09842000  1
  C  C1079  1  0.82346830  0.79758810  0.90158000  1
  C  C1080  1  0.09842000  0.70241190  0.67653170  1
  C  C1081  1  0.90158000  0.29758810  0.67653170  1
  C  C1082  1  0.90158000  0.70241190  0.32346830  1
  C  C1083  1  0.09842000  0.29758810  0.32346830  1
  C  C1084  1  0.17653170  0.59842000  0.70241190  1
  C  C1085  1  0.17653170  0.40158000  0.29758810  1
  C  C1086  1  0.82346830  0.40158000  0.70241190  1
  C  C1087  1  0.82346830  0.59842000  0.29758810  1
  C  C1088  1  0.20241190  0.67653170  0.59842000  1
  C  C1089  1  0.79758810  0.67653170  0.40158000  1
  C  C1090  1  0.20241190  0.32346830  0.40158000  1
  C  C1091  1  0.79758810  0.32346830  0.59842000  1
  C  C1092  1  0.20241190  0.59842000  0.32346830  1
  C  C1093  1  0.79758810  0.40158000  0.32346830  1
  C  C1094  1  0.20241190  0.40158000  0.67653170  1
  C  C1095  1  0.79758810  0.59842000  0.67653170  1
  C  C1096  1  0.09842000  0.67653170  0.29758810  1
  C  C1097  1  0.90158000  0.67653170  0.70241190  1
  C  C1098  1  0.90158000  0.32346830  0.29758810  1
  C  C1099  1  0.09842000  0.32346830  0.70241190  1
  C  C1100  1  0.17653170  0.70241190  0.40158000  1
  C  C1101  1  0.17653170  0.29758810  0.59842000  1
  C  C1102  1  0.82346830  0.70241190  0.59842000  1
  C  C1103  1  0.82346830  0.29758810  0.40158000  1
  C  C1104  1  0.59842000  0.20241190  0.67653170  1
  C  C1105  1  0.40158000  0.79758810  0.67653170  1
  C  C1106  1  0.40158000  0.20241190  0.32346830  1
  C  C1107  1  0.59842000  0.79758810  0.32346830  1
  C  C1108  1  0.67653170  0.09842000  0.70241190  1
  C  C1109  1  0.67653170  0.90158000  0.29758810  1
  C  C1110  1  0.32346830  0.90158000  0.70241190  1
  C  C1111  1  0.32346830  0.09842000  0.29758810  1
  C  C1112  1  0.70241190  0.17653170  0.59842000  1
  C  C1113  1  0.29758810  0.17653170  0.40158000  1
  C  C1114  1  0.70241190  0.82346830  0.40158000  1
  C  C1115  1  0.29758810  0.82346830  0.59842000  1
  C  C1116  1  0.70241190  0.09842000  0.32346830  1
  C  C1117  1  0.29758810  0.90158000  0.32346830  1
  C  C1118  1  0.70241190  0.90158000  0.67653170  1
  C  C1119  1  0.29758810  0.09842000  0.67653170  1
  C  C1120  1  0.59842000  0.17653170  0.29758810  1
  C  C1121  1  0.40158000  0.17653170  0.70241190  1
  C  C1122  1  0.40158000  0.82346830  0.29758810  1
  C  C1123  1  0.59842000  0.82346830  0.70241190  1
  C  C1124  1  0.67653170  0.20241190  0.40158000  1
  C  C1125  1  0.67653170  0.79758810  0.59842000  1
  C  C1126  1  0.32346830  0.20241190  0.59842000  1
  C  C1127  1  0.32346830  0.79758810  0.40158000  1
  C  C1128  1  0.59842000  0.70241190  0.17653170  1
  C  C1129  1  0.40158000  0.29758810  0.17653170  1
  C  C1130  1  0.40158000  0.70241190  0.82346830  1
  C  C1131  1  0.59842000  0.29758810  0.82346830  1
  C  C1132  1  0.67653170  0.59842000  0.20241190  1
  C  C1133  1  0.67653170  0.40158000  0.79758810  1
  C  C1134  1  0.32346830  0.40158000  0.20241190  1
  C  C1135  1  0.32346830  0.59842000  0.79758810  1
  C  C1136  1  0.70241190  0.67653170  0.09842000  1
  C  C1137  1  0.29758810  0.67653170  0.90158000  1
  C  C1138  1  0.70241190  0.32346830  0.90158000  1
  C  C1139  1  0.29758810  0.32346830  0.09842000  1
  C  C1140  1  0.70241190  0.59842000  0.82346830  1
  C  C1141  1  0.29758810  0.40158000  0.82346830  1
  C  C1142  1  0.70241190  0.40158000  0.17653170  1
  C  C1143  1  0.29758810  0.59842000  0.17653170  1
  C  C1144  1  0.59842000  0.67653170  0.79758810  1
  C  C1145  1  0.40158000  0.67653170  0.20241190  1
  C  C1146  1  0.40158000  0.32346830  0.79758810  1
  C  C1147  1  0.59842000  0.32346830  0.20241190  1
  C  C1148  1  0.67653170  0.70241190  0.90158000  1
  C  C1149  1  0.67653170  0.29758810  0.09842000  1
  C  C1150  1  0.32346830  0.70241190  0.09842000  1
  C  C1151  1  0.32346830  0.29758810  0.90158000  1
  C  C1152  1  0.90158000  0.79758810  0.82346830  1
  C  C1153  1  0.09842000  0.20241190  0.82346830  1
  C  C1154  1  0.09842000  0.79758810  0.17653170  1
  C  C1155  1  0.90158000  0.20241190  0.17653170  1
  C  C1156  1  0.82346830  0.90158000  0.79758810  1
  C  C1157  1  0.82346830  0.09842000  0.20241190  1
  C  C1158  1  0.17653170  0.09842000  0.79758810  1
  C  C1159  1  0.17653170  0.90158000  0.20241190  1
  C  C1160  1  0.79758810  0.82346830  0.90158000  1
  C  C1161  1  0.20241190  0.82346830  0.09842000  1
  C  C1162  1  0.79758810  0.17653170  0.09842000  1
  C  C1163  1  0.20241190  0.17653170  0.90158000  1
  C  C1164  1  0.79758810  0.90158000  0.17653170  1
  C  C1165  1  0.20241190  0.09842000  0.17653170  1
  C  C1166  1  0.79758810  0.09842000  0.82346830  1
  C  C1167  1  0.20241190  0.90158000  0.82346830  1
  C  C1168  1  0.90158000  0.82346830  0.20241190  1
  C  C1169  1  0.09842000  0.82346830  0.79758810  1
  C  C1170  1  0.09842000  0.17653170  0.20241190  1
  C  C1171  1  0.90158000  0.17653170  0.79758810  1
  C  C1172  1  0.82346830  0.79758810  0.09842000  1
  C  C1173  1  0.82346830  0.20241190  0.90158000  1
  C  C1174  1  0.17653170  0.79758810  0.90158000  1
  C  C1175  1  0.17653170  0.20241190  0.09842000  1
  C  C1176  1  0.90158000  0.29758810  0.32346830  1
  C  C1177  1  0.09842000  0.70241190  0.32346830  1
  C  C1178  1  0.09842000  0.29758810  0.67653170  1
  C  C1179  1  0.90158000  0.70241190  0.67653170  1
  C  C1180  1  0.82346830  0.40158000  0.29758810  1
  C  C1181  1  0.82346830  0.59842000  0.70241190  1
  C  C1182  1  0.17653170  0.59842000  0.29758810  1
  C  C1183  1  0.17653170  0.40158000  0.70241190  1
  C  C1184  1  0.79758810  0.32346830  0.40158000  1
  C  C1185  1  0.20241190  0.32346830  0.59842000  1
  C  C1186  1  0.79758810  0.67653170  0.59842000  1
  C  C1187  1  0.20241190  0.67653170  0.40158000  1
  C  C1188  1  0.79758810  0.40158000  0.67653170  1
  C  C1189  1  0.20241190  0.59842000  0.67653170  1
  C  C1190  1  0.79758810  0.59842000  0.32346830  1
  C  C1191  1  0.20241190  0.40158000  0.32346830  1
  C  C1192  1  0.90158000  0.32346830  0.70241190  1
  C  C1193  1  0.09842000  0.32346830  0.29758810  1
  C  C1194  1  0.09842000  0.67653170  0.70241190  1
  C  C1195  1  0.90158000  0.67653170  0.29758810  1
  C  C1196  1  0.82346830  0.29758810  0.59842000  1
  C  C1197  1  0.82346830  0.70241190  0.40158000  1
  C  C1198  1  0.17653170  0.29758810  0.40158000  1
  C  C1199  1  0.17653170  0.70241190  0.59842000  1
  C  C1200  1  0.40158000  0.79758810  0.32346830  1
  C  C1201  1  0.59842000  0.20241190  0.32346830  1
  C  C1202  1  0.59842000  0.79758810  0.67653170  1
  C  C1203  1  0.40158000  0.20241190  0.67653170  1
  C  C1204  1  0.32346830  0.90158000  0.29758810  1
  C  C1205  1  0.32346830  0.09842000  0.70241190  1
  C  C1206  1  0.67653170  0.09842000  0.29758810  1
  C  C1207  1  0.67653170  0.90158000  0.70241190  1
  C  C1208  1  0.29758810  0.82346830  0.40158000  1
  C  C1209  1  0.70241190  0.82346830  0.59842000  1
  C  C1210  1  0.29758810  0.17653170  0.59842000  1
  C  C1211  1  0.70241190  0.17653170  0.40158000  1
  C  C1212  1  0.29758810  0.90158000  0.67653170  1
  C  C1213  1  0.70241190  0.09842000  0.67653170  1
  C  C1214  1  0.29758810  0.09842000  0.32346830  1
  C  C1215  1  0.70241190  0.90158000  0.32346830  1
  C  C1216  1  0.40158000  0.82346830  0.70241190  1
  C  C1217  1  0.59842000  0.82346830  0.29758810  1
  C  C1218  1  0.59842000  0.17653170  0.70241190  1
  C  C1219  1  0.40158000  0.17653170  0.29758810  1
  C  C1220  1  0.32346830  0.79758810  0.59842000  1
  C  C1221  1  0.32346830  0.20241190  0.40158000  1
  C  C1222  1  0.67653170  0.79758810  0.40158000  1
  C  C1223  1  0.67653170  0.20241190  0.59842000  1
  C  C1224  1  0.40158000  0.29758810  0.82346830  1
  C  C1225  1  0.59842000  0.70241190  0.82346830  1
  C  C1226  1  0.59842000  0.29758810  0.17653170  1
  C  C1227  1  0.40158000  0.70241190  0.17653170  1
  C  C1228  1  0.32346830  0.40158000  0.79758810  1
  C  C1229  1  0.32346830  0.59842000  0.20241190  1
  C  C1230  1  0.67653170  0.59842000  0.79758810  1
  C  C1231  1  0.67653170  0.40158000  0.20241190  1
  C  C1232  1  0.29758810  0.32346830  0.90158000  1
  C  C1233  1  0.70241190  0.32346830  0.09842000  1
  C  C1234  1  0.29758810  0.67653170  0.09842000  1
  C  C1235  1  0.70241190  0.67653170  0.90158000  1
  C  C1236  1  0.29758810  0.40158000  0.17653170  1
  C  C1237  1  0.70241190  0.59842000  0.17653170  1
  C  C1238  1  0.29758810  0.59842000  0.82346830  1
  C  C1239  1  0.70241190  0.40158000  0.82346830  1
  C  C1240  1  0.40158000  0.32346830  0.20241190  1
  C  C1241  1  0.59842000  0.32346830  0.79758810  1
  C  C1242  1  0.59842000  0.67653170  0.20241190  1
  C  C1243  1  0.40158000  0.67653170  0.79758810  1
  C  C1244  1  0.32346830  0.29758810  0.09842000  1
  C  C1245  1  0.32346830  0.70241190  0.90158000  1
  C  C1246  1  0.67653170  0.29758810  0.90158000  1
  C  C1247  1  0.67653170  0.70241190  0.09842000  1
  H  H1248  1  0.09350000  0.21420000  0.17190000  1
  H  H1249  1  0.90650000  0.78580000  0.17190000  1
  H  H1250  1  0.90650000  0.21420000  0.82810000  1
  H  H1251  1  0.09350000  0.78580000  0.82810000  1
  H  H1252  1  0.17190000  0.09350000  0.21420000  1
  H  H1253  1  0.17190000  0.90650000  0.78580000  1
  H  H1254  1  0.82810000  0.90650000  0.21420000  1
  H  H1255  1  0.82810000  0.09350000  0.78580000  1
  H  H1256  1  0.21420000  0.17190000  0.09350000  1
  H  H1257  1  0.78580000  0.17190000  0.90650000  1
  H  H1258  1  0.21420000  0.82810000  0.90650000  1
  H  H1259  1  0.78580000  0.82810000  0.09350000  1
  H  H1260  1  0.21420000  0.09350000  0.82810000  1
  H  H1261  1  0.78580000  0.90650000  0.82810000  1
  H  H1262  1  0.21420000  0.90650000  0.17190000  1
  H  H1263  1  0.78580000  0.09350000  0.17190000  1
  H  H1264  1  0.09350000  0.17190000  0.78580000  1
  H  H1265  1  0.90650000  0.17190000  0.21420000  1
  H  H1266  1  0.90650000  0.82810000  0.78580000  1
  H  H1267  1  0.09350000  0.82810000  0.21420000  1
  H  H1268  1  0.17190000  0.21420000  0.90650000  1
  H  H1269  1  0.17190000  0.78580000  0.09350000  1
  H  H1270  1  0.82810000  0.21420000  0.09350000  1
  H  H1271  1  0.82810000  0.78580000  0.90650000  1
  H  H1272  1  0.09350000  0.71420000  0.67190000  1
  H  H1273  1  0.90650000  0.28580000  0.67190000  1
  H  H1274  1  0.90650000  0.71420000  0.32810000  1
  H  H1275  1  0.09350000  0.28580000  0.32810000  1
  H  H1276  1  0.17190000  0.59350000  0.71420000  1
  H  H1277  1  0.17190000  0.40650000  0.28580000  1
  H  H1278  1  0.82810000  0.40650000  0.71420000  1
  H  H1279  1  0.82810000  0.59350000  0.28580000  1
  H  H1280  1  0.21420000  0.67190000  0.59350000  1
  H  H1281  1  0.78580000  0.67190000  0.40650000  1
  H  H1282  1  0.21420000  0.32810000  0.40650000  1
  H  H1283  1  0.78580000  0.32810000  0.59350000  1
  H  H1284  1  0.21420000  0.59350000  0.32810000  1
  H  H1285  1  0.78580000  0.40650000  0.32810000  1
  H  H1286  1  0.21420000  0.40650000  0.67190000  1
  H  H1287  1  0.78580000  0.59350000  0.67190000  1
  H  H1288  1  0.09350000  0.67190000  0.28580000  1
  H  H1289  1  0.90650000  0.67190000  0.71420000  1
  H  H1290  1  0.90650000  0.32810000  0.28580000  1
  H  H1291  1  0.09350000  0.32810000  0.71420000  1
  H  H1292  1  0.17190000  0.71420000  0.40650000  1
  H  H1293  1  0.17190000  0.28580000  0.59350000  1
  H  H1294  1  0.82810000  0.71420000  0.59350000  1
  H  H1295  1  0.82810000  0.28580000  0.40650000  1
  H  H1296  1  0.59350000  0.21420000  0.67190000  1
  H  H1297  1  0.40650000  0.78580000  0.67190000  1
  H  H1298  1  0.40650000  0.21420000  0.32810000  1
  H  H1299  1  0.59350000  0.78580000  0.32810000  1
  H  H1300  1  0.67190000  0.09350000  0.71420000  1
  H  H1301  1  0.67190000  0.90650000  0.28580000  1
  H  H1302  1  0.32810000  0.90650000  0.71420000  1
  H  H1303  1  0.32810000  0.09350000  0.28580000  1
  H  H1304  1  0.71420000  0.17190000  0.59350000  1
  H  H1305  1  0.28580000  0.17190000  0.40650000  1
  H  H1306  1  0.71420000  0.82810000  0.40650000  1
  H  H1307  1  0.28580000  0.82810000  0.59350000  1
  H  H1308  1  0.71420000  0.09350000  0.32810000  1
  H  H1309  1  0.28580000  0.90650000  0.32810000  1
  H  H1310  1  0.71420000  0.90650000  0.67190000  1
  H  H1311  1  0.28580000  0.09350000  0.67190000  1
  H  H1312  1  0.59350000  0.17190000  0.28580000  1
  H  H1313  1  0.40650000  0.17190000  0.71420000  1
  H  H1314  1  0.40650000  0.82810000  0.28580000  1
  H  H1315  1  0.59350000  0.82810000  0.71420000  1
  H  H1316  1  0.67190000  0.21420000  0.40650000  1
  H  H1317  1  0.67190000  0.78580000  0.59350000  1
  H  H1318  1  0.32810000  0.21420000  0.59350000  1
  H  H1319  1  0.32810000  0.78580000  0.40650000  1
  H  H1320  1  0.59350000  0.71420000  0.17190000  1
  H  H1321  1  0.40650000  0.28580000  0.17190000  1
  H  H1322  1  0.40650000  0.71420000  0.82810000  1
  H  H1323  1  0.59350000  0.28580000  0.82810000  1
  H  H1324  1  0.67190000  0.59350000  0.21420000  1
  H  H1325  1  0.67190000  0.40650000  0.78580000  1
  H  H1326  1  0.32810000  0.40650000  0.21420000  1
  H  H1327  1  0.32810000  0.59350000  0.78580000  1
  H  H1328  1  0.71420000  0.67190000  0.09350000  1
  H  H1329  1  0.28580000  0.67190000  0.90650000  1
  H  H1330  1  0.71420000  0.32810000  0.90650000  1
  H  H1331  1  0.28580000  0.32810000  0.09350000  1
  H  H1332  1  0.71420000  0.59350000  0.82810000  1
  H  H1333  1  0.28580000  0.40650000  0.82810000  1
  H  H1334  1  0.71420000  0.40650000  0.17190000  1
  H  H1335  1  0.28580000  0.59350000  0.17190000  1
  H  H1336  1  0.59350000  0.67190000  0.78580000  1
  H  H1337  1  0.40650000  0.67190000  0.21420000  1
  H  H1338  1  0.40650000  0.32810000  0.78580000  1
  H  H1339  1  0.59350000  0.32810000  0.21420000  1
  H  H1340  1  0.67190000  0.71420000  0.90650000  1
  H  H1341  1  0.67190000  0.28580000  0.09350000  1
  H  H1342  1  0.32810000  0.71420000  0.09350000  1
  H  H1343  1  0.32810000  0.28580000  0.90650000  1
  H  H1344  1  0.90650000  0.78580000  0.82810000  1
  H  H1345  1  0.09350000  0.21420000  0.82810000  1
  H  H1346  1  0.09350000  0.78580000  0.17190000  1
  H  H1347  1  0.90650000  0.21420000  0.17190000  1
  H  H1348  1  0.82810000  0.90650000  0.78580000  1
  H  H1349  1  0.82810000  0.09350000  0.21420000  1
  H  H1350  1  0.17190000  0.09350000  0.78580000  1
  H  H1351  1  0.17190000  0.90650000  0.21420000  1
  H  H1352  1  0.78580000  0.82810000  0.90650000  1
  H  H1353  1  0.21420000  0.82810000  0.09350000  1
  H  H1354  1  0.78580000  0.17190000  0.09350000  1
  H  H1355  1  0.21420000  0.17190000  0.90650000  1
  H  H1356  1  0.78580000  0.90650000  0.17190000  1
  H  H1357  1  0.21420000  0.09350000  0.17190000  1
  H  H1358  1  0.78580000  0.09350000  0.82810000  1
  H  H1359  1  0.21420000  0.90650000  0.82810000  1
  H  H1360  1  0.90650000  0.82810000  0.21420000  1
  H  H1361  1  0.09350000  0.82810000  0.78580000  1
  H  H1362  1  0.09350000  0.17190000  0.21420000  1
  H  H1363  1  0.90650000  0.17190000  0.78580000  1
  H  H1364  1  0.82810000  0.78580000  0.09350000  1
  H  H1365  1  0.82810000  0.21420000  0.90650000  1
  H  H1366  1  0.17190000  0.78580000  0.90650000  1
  H  H1367  1  0.17190000  0.21420000  0.09350000  1
  H  H1368  1  0.90650000  0.28580000  0.32810000  1
  H  H1369  1  0.09350000  0.71420000  0.32810000  1
  H  H1370  1  0.09350000  0.28580000  0.67190000  1
  H  H1371  1  0.90650000  0.71420000  0.67190000  1
  H  H1372  1  0.82810000  0.40650000  0.28580000  1
  H  H1373  1  0.82810000  0.59350000  0.71420000  1
  H  H1374  1  0.17190000  0.59350000  0.28580000  1
  H  H1375  1  0.17190000  0.40650000  0.71420000  1
  H  H1376  1  0.78580000  0.32810000  0.40650000  1
  H  H1377  1  0.21420000  0.32810000  0.59350000  1
  H  H1378  1  0.78580000  0.67190000  0.59350000  1
  H  H1379  1  0.21420000  0.67190000  0.40650000  1
  H  H1380  1  0.78580000  0.40650000  0.67190000  1
  H  H1381  1  0.21420000  0.59350000  0.67190000  1
  H  H1382  1  0.78580000  0.59350000  0.32810000  1
  H  H1383  1  0.21420000  0.40650000  0.32810000  1
  H  H1384  1  0.90650000  0.32810000  0.71420000  1
  H  H1385  1  0.09350000  0.32810000  0.28580000  1
  H  H1386  1  0.09350000  0.67190000  0.71420000  1
  H  H1387  1  0.90650000  0.67190000  0.28580000  1
  H  H1388  1  0.82810000  0.28580000  0.59350000  1
  H  H1389  1  0.82810000  0.71420000  0.40650000  1
  H  H1390  1  0.17190000  0.28580000  0.40650000  1
  H  H1391  1  0.17190000  0.71420000  0.59350000  1
  H  H1392  1  0.40650000  0.78580000  0.32810000  1
  H  H1393  1  0.59350000  0.21420000  0.32810000  1
  H  H1394  1  0.59350000  0.78580000  0.67190000  1
  H  H1395  1  0.40650000  0.21420000  0.67190000  1
  H  H1396  1  0.32810000  0.90650000  0.28580000  1
  H  H1397  1  0.32810000  0.09350000  0.71420000  1
  H  H1398  1  0.67190000  0.09350000  0.28580000  1
  H  H1399  1  0.67190000  0.90650000  0.71420000  1
  H  H1400  1  0.28580000  0.82810000  0.40650000  1
  H  H1401  1  0.71420000  0.82810000  0.59350000  1
  H  H1402  1  0.28580000  0.17190000  0.59350000  1
  H  H1403  1  0.71420000  0.17190000  0.40650000  1
  H  H1404  1  0.28580000  0.90650000  0.67190000  1
  H  H1405  1  0.71420000  0.09350000  0.67190000  1
  H  H1406  1  0.28580000  0.09350000  0.32810000  1
  H  H1407  1  0.71420000  0.90650000  0.32810000  1
  H  H1408  1  0.40650000  0.82810000  0.71420000  1
  H  H1409  1  0.59350000  0.82810000  0.28580000  1
  H  H1410  1  0.59350000  0.17190000  0.71420000  1
  H  H1411  1  0.40650000  0.17190000  0.28580000  1
  H  H1412  1  0.32810000  0.78580000  0.59350000  1
  H  H1413  1  0.32810000  0.21420000  0.40650000  1
  H  H1414  1  0.67190000  0.78580000  0.40650000  1
  H  H1415  1  0.67190000  0.21420000  0.59350000  1
  H  H1416  1  0.40650000  0.28580000  0.82810000  1
  H  H1417  1  0.59350000  0.71420000  0.82810000  1
  H  H1418  1  0.59350000  0.28580000  0.17190000  1
  H  H1419  1  0.40650000  0.71420000  0.17190000  1
  H  H1420  1  0.32810000  0.40650000  0.78580000  1
  H  H1421  1  0.32810000  0.59350000  0.21420000  1
  H  H1422  1  0.67190000  0.59350000  0.78580000  1
  H  H1423  1  0.67190000  0.40650000  0.21420000  1
  H  H1424  1  0.28580000  0.32810000  0.90650000  1
  H  H1425  1  0.71420000  0.32810000  0.09350000  1
  H  H1426  1  0.28580000  0.67190000  0.09350000  1
  H  H1427  1  0.71420000  0.67190000  0.90650000  1
  H  H1428  1  0.28580000  0.40650000  0.17190000  1
  H  H1429  1  0.71420000  0.59350000  0.17190000  1
  H  H1430  1  0.28580000  0.59350000  0.82810000  1
  H  H1431  1  0.71420000  0.40650000  0.82810000  1
  H  H1432  1  0.40650000  0.32810000  0.21420000  1
  H  H1433  1  0.59350000  0.32810000  0.78580000  1
  H  H1434  1  0.59350000  0.67190000  0.21420000  1
  H  H1435  1  0.40650000  0.67190000  0.78580000  1
  H  H1436  1  0.32810000  0.28580000  0.09350000  1
  H  H1437  1  0.32810000  0.71420000  0.90650000  1
  H  H1438  1  0.67190000  0.28580000  0.90650000  1
  H  H1439  1  0.67190000  0.71420000  0.09350000  1
  C  C1440  1  0.08972000  0.19295180  0.19295180  1
  C  C1441  1  0.91028000  0.80704820  0.19295180  1
  C  C1442  1  0.91028000  0.19295180  0.80704820  1
  C  C1443  1  0.08972000  0.80704820  0.80704820  1
  C  C1444  1  0.19295180  0.08972000  0.19295180  1
  C  C1445  1  0.19295180  0.91028000  0.80704820  1
  C  C1446  1  0.80704820  0.91028000  0.19295180  1
  C  C1447  1  0.80704820  0.08972000  0.80704820  1
  C  C1448  1  0.19295180  0.19295180  0.08972000  1
  C  C1449  1  0.80704820  0.19295180  0.91028000  1
  C  C1450  1  0.19295180  0.80704820  0.91028000  1
  C  C1451  1  0.80704820  0.80704820  0.08972000  1
  C  C1452  1  0.19295180  0.08972000  0.80704820  1
  C  C1453  1  0.80704820  0.91028000  0.80704820  1
  C  C1454  1  0.19295180  0.91028000  0.19295180  1
  C  C1455  1  0.80704820  0.08972000  0.19295180  1
  C  C1456  1  0.08972000  0.19295180  0.80704820  1
  C  C1457  1  0.91028000  0.19295180  0.19295180  1
  C  C1458  1  0.91028000  0.80704820  0.80704820  1
  C  C1459  1  0.08972000  0.80704820  0.19295180  1
  C  C1460  1  0.19295180  0.19295180  0.91028000  1
  C  C1461  1  0.19295180  0.80704820  0.08972000  1
  C  C1462  1  0.80704820  0.19295180  0.08972000  1
  C  C1463  1  0.80704820  0.80704820  0.91028000  1
  C  C1464  1  0.08972000  0.69295180  0.69295180  1
  C  C1465  1  0.91028000  0.30704820  0.69295180  1
  C  C1466  1  0.91028000  0.69295180  0.30704820  1
  C  C1467  1  0.08972000  0.30704820  0.30704820  1
  C  C1468  1  0.19295180  0.58972000  0.69295180  1
  C  C1469  1  0.19295180  0.41028000  0.30704820  1
  C  C1470  1  0.80704820  0.41028000  0.69295180  1
  C  C1471  1  0.80704820  0.58972000  0.30704820  1
  C  C1472  1  0.19295180  0.69295180  0.58972000  1
  C  C1473  1  0.80704820  0.69295180  0.41028000  1
  C  C1474  1  0.19295180  0.30704820  0.41028000  1
  C  C1475  1  0.80704820  0.30704820  0.58972000  1
  C  C1476  1  0.19295180  0.58972000  0.30704820  1
  C  C1477  1  0.80704820  0.41028000  0.30704820  1
  C  C1478  1  0.19295180  0.41028000  0.69295180  1
  C  C1479  1  0.80704820  0.58972000  0.69295180  1
  C  C1480  1  0.08972000  0.69295180  0.30704820  1
  C  C1481  1  0.91028000  0.69295180  0.69295180  1
  C  C1482  1  0.91028000  0.30704820  0.30704820  1
  C  C1483  1  0.08972000  0.30704820  0.69295180  1
  C  C1484  1  0.19295180  0.69295180  0.41028000  1
  C  C1485  1  0.19295180  0.30704820  0.58972000  1
  C  C1486  1  0.80704820  0.69295180  0.58972000  1
  C  C1487  1  0.80704820  0.30704820  0.41028000  1
  C  C1488  1  0.58972000  0.19295180  0.69295180  1
  C  C1489  1  0.41028000  0.80704820  0.69295180  1
  C  C1490  1  0.41028000  0.19295180  0.30704820  1
  C  C1491  1  0.58972000  0.80704820  0.30704820  1
  C  C1492  1  0.69295180  0.08972000  0.69295180  1
  C  C1493  1  0.69295180  0.91028000  0.30704820  1
  C  C1494  1  0.30704820  0.91028000  0.69295180  1
  C  C1495  1  0.30704820  0.08972000  0.30704820  1
  C  C1496  1  0.69295180  0.19295180  0.58972000  1
  C  C1497  1  0.30704820  0.19295180  0.41028000  1
  C  C1498  1  0.69295180  0.80704820  0.41028000  1
  C  C1499  1  0.30704820  0.80704820  0.58972000  1
  C  C1500  1  0.69295180  0.08972000  0.30704820  1
  C  C1501  1  0.30704820  0.91028000  0.30704820  1
  C  C1502  1  0.69295180  0.91028000  0.69295180  1
  C  C1503  1  0.30704820  0.08972000  0.69295180  1
  C  C1504  1  0.58972000  0.19295180  0.30704820  1
  C  C1505  1  0.41028000  0.19295180  0.69295180  1
  C  C1506  1  0.41028000  0.80704820  0.30704820  1
  C  C1507  1  0.58972000  0.80704820  0.69295180  1
  C  C1508  1  0.69295180  0.19295180  0.41028000  1
  C  C1509  1  0.69295180  0.80704820  0.58972000  1
  C  C1510  1  0.30704820  0.19295180  0.58972000  1
  C  C1511  1  0.30704820  0.80704820  0.41028000  1
  C  C1512  1  0.58972000  0.69295180  0.19295180  1
  C  C1513  1  0.41028000  0.30704820  0.19295180  1
  C  C1514  1  0.41028000  0.69295180  0.80704820  1
  C  C1515  1  0.58972000  0.30704820  0.80704820  1
  C  C1516  1  0.69295180  0.58972000  0.19295180  1
  C  C1517  1  0.69295180  0.41028000  0.80704820  1
  C  C1518  1  0.30704820  0.41028000  0.19295180  1
  C  C1519  1  0.30704820  0.58972000  0.80704820  1
  C  C1520  1  0.69295180  0.69295180  0.08972000  1
  C  C1521  1  0.30704820  0.69295180  0.91028000  1
  C  C1522  1  0.69295180  0.30704820  0.91028000  1
  C  C1523  1  0.30704820  0.30704820  0.08972000  1
  C  C1524  1  0.69295180  0.58972000  0.80704820  1
  C  C1525  1  0.30704820  0.41028000  0.80704820  1
  C  C1526  1  0.69295180  0.41028000  0.19295180  1
  C  C1527  1  0.30704820  0.58972000  0.19295180  1
  C  C1528  1  0.58972000  0.69295180  0.80704820  1
  C  C1529  1  0.41028000  0.69295180  0.19295180  1
  C  C1530  1  0.41028000  0.30704820  0.80704820  1
  C  C1531  1  0.58972000  0.30704820  0.19295180  1
  C  C1532  1  0.69295180  0.69295180  0.91028000  1
  C  C1533  1  0.69295180  0.30704820  0.08972000  1
  C  C1534  1  0.30704820  0.69295180  0.08972000  1
  C  C1535  1  0.30704820  0.30704820  0.91028000  1
  C  C1536  1  0.07159170  0.20205120  0.20205120  1
  C  C1537  1  0.92840830  0.79794880  0.20205120  1
  C  C1538  1  0.92840830  0.20205120  0.79794880  1
  C  C1539  1  0.07159170  0.79794880  0.79794880  1
  C  C1540  1  0.20205120  0.07159170  0.20205120  1
  C  C1541  1  0.20205120  0.92840830  0.79794880  1
  C  C1542  1  0.79794880  0.92840830  0.20205120  1
  C  C1543  1  0.79794880  0.07159170  0.79794880  1
  C  C1544  1  0.20205120  0.20205120  0.07159170  1
  C  C1545  1  0.79794880  0.20205120  0.92840830  1
  C  C1546  1  0.20205120  0.79794880  0.92840830  1
  C  C1547  1  0.79794880  0.79794880  0.07159170  1
  C  C1548  1  0.20205120  0.07159170  0.79794880  1
  C  C1549  1  0.79794880  0.92840830  0.79794880  1
  C  C1550  1  0.20205120  0.92840830  0.20205120  1
  C  C1551  1  0.79794880  0.07159170  0.20205120  1
  C  C1552  1  0.07159170  0.20205120  0.79794880  1
  C  C1553  1  0.92840830  0.20205120  0.20205120  1
  C  C1554  1  0.92840830  0.79794880  0.79794880  1
  C  C1555  1  0.07159170  0.79794880  0.20205120  1
  C  C1556  1  0.20205120  0.20205120  0.92840830  1
  C  C1557  1  0.20205120  0.79794880  0.07159170  1
  C  C1558  1  0.79794880  0.20205120  0.07159170  1
  C  C1559  1  0.79794880  0.79794880  0.92840830  1
  C  C1560  1  0.07159170  0.70205120  0.70205120  1
  C  C1561  1  0.92840830  0.29794880  0.70205120  1
  C  C1562  1  0.92840830  0.70205120  0.29794880  1
  C  C1563  1  0.07159170  0.29794880  0.29794880  1
  C  C1564  1  0.20205120  0.57159170  0.70205120  1
  C  C1565  1  0.20205120  0.42840830  0.29794880  1
  C  C1566  1  0.79794880  0.42840830  0.70205120  1
  C  C1567  1  0.79794880  0.57159170  0.29794880  1
  C  C1568  1  0.20205120  0.70205120  0.57159170  1
  C  C1569  1  0.79794880  0.70205120  0.42840830  1
  C  C1570  1  0.20205120  0.29794880  0.42840830  1
  C  C1571  1  0.79794880  0.29794880  0.57159170  1
  C  C1572  1  0.20205120  0.57159170  0.29794880  1
  C  C1573  1  0.79794880  0.42840830  0.29794880  1
  C  C1574  1  0.20205120  0.42840830  0.70205120  1
  C  C1575  1  0.79794880  0.57159170  0.70205120  1
  C  C1576  1  0.07159170  0.70205120  0.29794880  1
  C  C1577  1  0.92840830  0.70205120  0.70205120  1
  C  C1578  1  0.92840830  0.29794880  0.29794880  1
  C  C1579  1  0.07159170  0.29794880  0.70205120  1
  C  C1580  1  0.20205120  0.70205120  0.42840830  1
  C  C1581  1  0.20205120  0.29794880  0.57159170  1
  C  C1582  1  0.79794880  0.70205120  0.57159170  1
  C  C1583  1  0.79794880  0.29794880  0.42840830  1
  C  C1584  1  0.57159170  0.20205120  0.70205120  1
  C  C1585  1  0.42840830  0.79794880  0.70205120  1
  C  C1586  1  0.42840830  0.20205120  0.29794880  1
  C  C1587  1  0.57159170  0.79794880  0.29794880  1
  C  C1588  1  0.70205120  0.07159170  0.70205120  1
  C  C1589  1  0.70205120  0.92840830  0.29794880  1
  C  C1590  1  0.29794880  0.92840830  0.70205120  1
  C  C1591  1  0.29794880  0.07159170  0.29794880  1
  C  C1592  1  0.70205120  0.20205120  0.57159170  1
  C  C1593  1  0.29794880  0.20205120  0.42840830  1
  C  C1594  1  0.70205120  0.79794880  0.42840830  1
  C  C1595  1  0.29794880  0.79794880  0.57159170  1
  C  C1596  1  0.70205120  0.07159170  0.29794880  1
  C  C1597  1  0.29794880  0.92840830  0.29794880  1
  C  C1598  1  0.70205120  0.92840830  0.70205120  1
  C  C1599  1  0.29794880  0.07159170  0.70205120  1
  C  C1600  1  0.57159170  0.20205120  0.29794880  1
  C  C1601  1  0.42840830  0.20205120  0.70205120  1
  C  C1602  1  0.42840830  0.79794880  0.29794880  1
  C  C1603  1  0.57159170  0.79794880  0.70205120  1
  C  C1604  1  0.70205120  0.20205120  0.42840830  1
  C  C1605  1  0.70205120  0.79794880  0.57159170  1
  C  C1606  1  0.29794880  0.20205120  0.57159170  1
  C  C1607  1  0.29794880  0.79794880  0.42840830  1
  C  C1608  1  0.57159170  0.70205120  0.20205120  1
  C  C1609  1  0.42840830  0.29794880  0.20205120  1
  C  C1610  1  0.42840830  0.70205120  0.79794880  1
  C  C1611  1  0.57159170  0.29794880  0.79794880  1
  C  C1612  1  0.70205120  0.57159170  0.20205120  1
  C  C1613  1  0.70205120  0.42840830  0.79794880  1
  C  C1614  1  0.29794880  0.42840830  0.20205120  1
  C  C1615  1  0.29794880  0.57159170  0.79794880  1
  C  C1616  1  0.70205120  0.70205120  0.07159170  1
  C  C1617  1  0.29794880  0.70205120  0.92840830  1
  C  C1618  1  0.70205120  0.29794880  0.92840830  1
  C  C1619  1  0.29794880  0.29794880  0.07159170  1
  C  C1620  1  0.70205120  0.57159170  0.79794880  1
  C  C1621  1  0.29794880  0.42840830  0.79794880  1
  C  C1622  1  0.70205120  0.42840830  0.20205120  1
  C  C1623  1  0.29794880  0.57159170  0.20205120  1
  C  C1624  1  0.57159170  0.70205120  0.79794880  1
  C  C1625  1  0.42840830  0.70205120  0.20205120  1
  C  C1626  1  0.42840830  0.29794880  0.79794880  1
  C  C1627  1  0.57159170  0.29794880  0.20205120  1
  C  C1628  1  0.70205120  0.70205120  0.92840830  1
  C  C1629  1  0.70205120  0.29794880  0.07159170  1
  C  C1630  1  0.29794880  0.70205120  0.07159170  1
  C  C1631  1  0.29794880  0.29794880  0.92840830  1
  C  C1632  1  0.06450160  0.21978120  0.19384130  1
  C  C1633  1  0.93549840  0.78021880  0.19384130  1
  C  C1634  1  0.93549840  0.21978120  0.80615870  1
  C  C1635  1  0.06450160  0.78021880  0.80615870  1
  C  C1636  1  0.19384130  0.06450160  0.21978120  1
  C  C1637  1  0.19384130  0.93549840  0.78021880  1
  C  C1638  1  0.80615870  0.93549840  0.21978120  1
  C  C1639  1  0.80615870  0.06450160  0.78021880  1
  C  C1640  1  0.21978120  0.19384130  0.06450160  1
  C  C1641  1  0.78021880  0.19384130  0.93549840  1
  C  C1642  1  0.21978120  0.80615870  0.93549840  1
  C  C1643  1  0.78021880  0.80615870  0.06450160  1
  C  C1644  1  0.21978120  0.06450160  0.80615870  1
  C  C1645  1  0.78021880  0.93549840  0.80615870  1
  C  C1646  1  0.21978120  0.93549840  0.19384130  1
  C  C1647  1  0.78021880  0.06450160  0.19384130  1
  C  C1648  1  0.06450160  0.19384130  0.78021880  1
  C  C1649  1  0.93549840  0.19384130  0.21978120  1
  C  C1650  1  0.93549840  0.80615870  0.78021880  1
  C  C1651  1  0.06450160  0.80615870  0.21978120  1
  C  C1652  1  0.19384130  0.21978120  0.93549840  1
  C  C1653  1  0.19384130  0.78021880  0.06450160  1
  C  C1654  1  0.80615870  0.21978120  0.06450160  1
  C  C1655  1  0.80615870  0.78021880  0.93549840  1
  C  C1656  1  0.06450160  0.71978120  0.69384130  1
  C  C1657  1  0.93549840  0.28021880  0.69384130  1
  C  C1658  1  0.93549840  0.71978120  0.30615870  1
  C  C1659  1  0.06450160  0.28021880  0.30615870  1
  C  C1660  1  0.19384130  0.56450160  0.71978120  1
  C  C1661  1  0.19384130  0.43549840  0.28021880  1
  C  C1662  1  0.80615870  0.43549840  0.71978120  1
  C  C1663  1  0.80615870  0.56450160  0.28021880  1
  C  C1664  1  0.21978120  0.69384130  0.56450160  1
  C  C1665  1  0.78021880  0.69384130  0.43549840  1
  C  C1666  1  0.21978120  0.30615870  0.43549840  1
  C  C1667  1  0.78021880  0.30615870  0.56450160  1
  C  C1668  1  0.21978120  0.56450160  0.30615870  1
  C  C1669  1  0.78021880  0.43549840  0.30615870  1
  C  C1670  1  0.21978120  0.43549840  0.69384130  1
  C  C1671  1  0.78021880  0.56450160  0.69384130  1
  C  C1672  1  0.06450160  0.69384130  0.28021880  1
  C  C1673  1  0.93549840  0.69384130  0.71978120  1
  C  C1674  1  0.93549840  0.30615870  0.28021880  1
  C  C1675  1  0.06450160  0.30615870  0.71978120  1
  C  C1676  1  0.19384130  0.71978120  0.43549840  1
  C  C1677  1  0.19384130  0.28021880  0.56450160  1
  C  C1678  1  0.80615870  0.71978120  0.56450160  1
  C  C1679  1  0.80615870  0.28021880  0.43549840  1
  C  C1680  1  0.56450160  0.21978120  0.69384130  1
  C  C1681  1  0.43549840  0.78021880  0.69384130  1
  C  C1682  1  0.43549840  0.21978120  0.30615870  1
  C  C1683  1  0.56450160  0.78021880  0.30615870  1
  C  C1684  1  0.69384130  0.06450160  0.71978120  1
  C  C1685  1  0.69384130  0.93549840  0.28021880  1
  C  C1686  1  0.30615870  0.93549840  0.71978120  1
  C  C1687  1  0.30615870  0.06450160  0.28021880  1
  C  C1688  1  0.71978120  0.19384130  0.56450160  1
  C  C1689  1  0.28021880  0.19384130  0.43549840  1
  C  C1690  1  0.71978120  0.80615870  0.43549840  1
  C  C1691  1  0.28021880  0.80615870  0.56450160  1
  C  C1692  1  0.71978120  0.06450160  0.30615870  1
  C  C1693  1  0.28021880  0.93549840  0.30615870  1
  C  C1694  1  0.71978120  0.93549840  0.69384130  1
  C  C1695  1  0.28021880  0.06450160  0.69384130  1
  C  C1696  1  0.56450160  0.19384130  0.28021880  1
  C  C1697  1  0.43549840  0.19384130  0.71978120  1
  C  C1698  1  0.43549840  0.80615870  0.28021880  1
  C  C1699  1  0.56450160  0.80615870  0.71978120  1
  C  C1700  1  0.69384130  0.21978120  0.43549840  1
  C  C1701  1  0.69384130  0.78021880  0.56450160  1
  C  C1702  1  0.30615870  0.21978120  0.56450160  1
  C  C1703  1  0.30615870  0.78021880  0.43549840  1
  C  C1704  1  0.56450160  0.71978120  0.19384130  1
  C  C1705  1  0.43549840  0.28021880  0.19384130  1
  C  C1706  1  0.43549840  0.71978120  0.80615870  1
  C  C1707  1  0.56450160  0.28021880  0.80615870  1
  C  C1708  1  0.69384130  0.56450160  0.21978120  1
  C  C1709  1  0.69384130  0.43549840  0.78021880  1
  C  C1710  1  0.30615870  0.43549840  0.21978120  1
  C  C1711  1  0.30615870  0.56450160  0.78021880  1
  C  C1712  1  0.71978120  0.69384130  0.06450160  1
  C  C1713  1  0.28021880  0.69384130  0.93549840  1
  C  C1714  1  0.71978120  0.30615870  0.93549840  1
  C  C1715  1  0.28021880  0.30615870  0.06450160  1
  C  C1716  1  0.71978120  0.56450160  0.80615870  1
  C  C1717  1  0.28021880  0.43549840  0.80615870  1
  C  C1718  1  0.71978120  0.43549840  0.19384130  1
  C  C1719  1  0.28021880  0.56450160  0.19384130  1
  C  C1720  1  0.56450160  0.69384130  0.78021880  1
  C  C1721  1  0.43549840  0.69384130  0.21978120  1
  C  C1722  1  0.43549840  0.30615870  0.78021880  1
  C  C1723  1  0.56450160  0.30615870  0.21978120  1
  C  C1724  1  0.69384130  0.71978120  0.93549840  1
  C  C1725  1  0.69384130  0.28021880  0.06450160  1
  C  C1726  1  0.30615870  0.71978120  0.06450160  1
  C  C1727  1  0.30615870  0.28021880  0.93549840  1
  C  C1728  1  0.93549840  0.78021880  0.80615870  1
  C  C1729  1  0.06450160  0.21978120  0.80615870  1
  C  C1730  1  0.06450160  0.78021880  0.19384130  1
  C  C1731  1  0.93549840  0.21978120  0.19384130  1
  C  C1732  1  0.80615870  0.93549840  0.78021880  1
  C  C1733  1  0.80615870  0.06450160  0.21978120  1
  C  C1734  1  0.19384130  0.06450160  0.78021880  1
  C  C1735  1  0.19384130  0.93549840  0.21978120  1
  C  C1736  1  0.78021880  0.80615870  0.93549840  1
  C  C1737  1  0.21978120  0.80615870  0.06450160  1
  C  C1738  1  0.78021880  0.19384130  0.06450160  1
  C  C1739  1  0.21978120  0.19384130  0.93549840  1
  C  C1740  1  0.78021880  0.93549840  0.19384130  1
  C  C1741  1  0.21978120  0.06450160  0.19384130  1
  C  C1742  1  0.78021880  0.06450160  0.80615870  1
  C  C1743  1  0.21978120  0.93549840  0.80615870  1
  C  C1744  1  0.93549840  0.80615870  0.21978120  1
  C  C1745  1  0.06450160  0.80615870  0.78021880  1
  C  C1746  1  0.06450160  0.19384130  0.21978120  1
  C  C1747  1  0.93549840  0.19384130  0.78021880  1
  C  C1748  1  0.80615870  0.78021880  0.06450160  1
  C  C1749  1  0.80615870  0.21978120  0.93549840  1
  C  C1750  1  0.19384130  0.78021880  0.93549840  1
  C  C1751  1  0.19384130  0.21978120  0.06450160  1
  C  C1752  1  0.93549840  0.28021880  0.30615870  1
  C  C1753  1  0.06450160  0.71978120  0.30615870  1
  C  C1754  1  0.06450160  0.28021880  0.69384130  1
  C  C1755  1  0.93549840  0.71978120  0.69384130  1
  C  C1756  1  0.80615870  0.43549840  0.28021880  1
  C  C1757  1  0.80615870  0.56450160  0.71978120  1
  C  C1758  1  0.19384130  0.56450160  0.28021880  1
  C  C1759  1  0.19384130  0.43549840  0.71978120  1
  C  C1760  1  0.78021880  0.30615870  0.43549840  1
  C  C1761  1  0.21978120  0.30615870  0.56450160  1
  C  C1762  1  0.78021880  0.69384130  0.56450160  1
  C  C1763  1  0.21978120  0.69384130  0.43549840  1
  C  C1764  1  0.78021880  0.43549840  0.69384130  1
  C  C1765  1  0.21978120  0.56450160  0.69384130  1
  C  C1766  1  0.78021880  0.56450160  0.30615870  1
  C  C1767  1  0.21978120  0.43549840  0.30615870  1
  C  C1768  1  0.93549840  0.30615870  0.71978120  1
  C  C1769  1  0.06450160  0.30615870  0.28021880  1
  C  C1770  1  0.06450160  0.69384130  0.71978120  1
  C  C1771  1  0.93549840  0.69384130  0.28021880  1
  C  C1772  1  0.80615870  0.28021880  0.56450160  1
  C  C1773  1  0.80615870  0.71978120  0.43549840  1
  C  C1774  1  0.19384130  0.28021880  0.43549840  1
  C  C1775  1  0.19384130  0.71978120  0.56450160  1
  C  C1776  1  0.43549840  0.78021880  0.30615870  1
  C  C1777  1  0.56450160  0.21978120  0.30615870  1
  C  C1778  1  0.56450160  0.78021880  0.69384130  1
  C  C1779  1  0.43549840  0.21978120  0.69384130  1
  C  C1780  1  0.30615870  0.93549840  0.28021880  1
  C  C1781  1  0.30615870  0.06450160  0.71978120  1
  C  C1782  1  0.69384130  0.06450160  0.28021880  1
  C  C1783  1  0.69384130  0.93549840  0.71978120  1
  C  C1784  1  0.28021880  0.80615870  0.43549840  1
  C  C1785  1  0.71978120  0.80615870  0.56450160  1
  C  C1786  1  0.28021880  0.19384130  0.56450160  1
  C  C1787  1  0.71978120  0.19384130  0.43549840  1
  C  C1788  1  0.28021880  0.93549840  0.69384130  1
  C  C1789  1  0.71978120  0.06450160  0.69384130  1
  C  C1790  1  0.28021880  0.06450160  0.30615870  1
  C  C1791  1  0.71978120  0.93549840  0.30615870  1
  C  C1792  1  0.43549840  0.80615870  0.71978120  1
  C  C1793  1  0.56450160  0.80615870  0.28021880  1
  C  C1794  1  0.56450160  0.19384130  0.71978120  1
  C  C1795  1  0.43549840  0.19384130  0.28021880  1
  C  C1796  1  0.30615870  0.78021880  0.56450160  1
  C  C1797  1  0.30615870  0.21978120  0.43549840  1
  C  C1798  1  0.69384130  0.78021880  0.43549840  1
  C  C1799  1  0.69384130  0.21978120  0.56450160  1
  C  C1800  1  0.43549840  0.28021880  0.80615870  1
  C  C1801  1  0.56450160  0.71978120  0.80615870  1
  C  C1802  1  0.56450160  0.28021880  0.19384130  1
  C  C1803  1  0.43549840  0.71978120  0.19384130  1
  C  C1804  1  0.30615870  0.43549840  0.78021880  1
  C  C1805  1  0.30615870  0.56450160  0.21978120  1
  C  C1806  1  0.69384130  0.56450160  0.78021880  1
  C  C1807  1  0.69384130  0.43549840  0.21978120  1
  C  C1808  1  0.28021880  0.30615870  0.93549840  1
  C  C1809  1  0.71978120  0.30615870  0.06450160  1
  C  C1810  1  0.28021880  0.69384130  0.06450160  1
  C  C1811  1  0.71978120  0.69384130  0.93549840  1
  C  C1812  1  0.28021880  0.43549840  0.19384130  1
  C  C1813  1  0.71978120  0.56450160  0.19384130  1
  C  C1814  1  0.28021880  0.56450160  0.80615870  1
  C  C1815  1  0.71978120  0.43549840  0.80615870  1
  C  C1816  1  0.43549840  0.30615870  0.21978120  1
  C  C1817  1  0.56450160  0.30615870  0.78021880  1
  C  C1818  1  0.56450160  0.69384130  0.21978120  1
  C  C1819  1  0.43549840  0.69384130  0.78021880  1
  C  C1820  1  0.30615870  0.28021880  0.06450160  1
  C  C1821  1  0.30615870  0.71978120  0.93549840  1
  C  C1822  1  0.69384130  0.28021880  0.93549840  1
  C  C1823  1  0.69384130  0.71978120  0.06450160  1
  H  H1824  1  0.06980000  0.22480000  0.18230000  1
  H  H1825  1  0.93020000  0.77520000  0.18230000  1
  H  H1826  1  0.93020000  0.22480000  0.81770000  1
  H  H1827  1  0.06980000  0.77520000  0.81770000  1
  H  H1828  1  0.18230000  0.06980000  0.22480000  1
  H  H1829  1  0.18230000  0.93020000  0.77520000  1
  H  H1830  1  0.81770000  0.93020000  0.22480000  1
  H  H1831  1  0.81770000  0.06980000  0.77520000  1
  H  H1832  1  0.22480000  0.18230000  0.06980000  1
  H  H1833  1  0.77520000  0.18230000  0.93020000  1
  H  H1834  1  0.22480000  0.81770000  0.93020000  1
  H  H1835  1  0.77520000  0.81770000  0.06980000  1
  H  H1836  1  0.22480000  0.06980000  0.81770000  1
  H  H1837  1  0.77520000  0.93020000  0.81770000  1
  H  H1838  1  0.22480000  0.93020000  0.18230000  1
  H  H1839  1  0.77520000  0.06980000  0.18230000  1
  H  H1840  1  0.06980000  0.18230000  0.77520000  1
  H  H1841  1  0.93020000  0.18230000  0.22480000  1
  H  H1842  1  0.93020000  0.81770000  0.77520000  1
  H  H1843  1  0.06980000  0.81770000  0.22480000  1
  H  H1844  1  0.18230000  0.22480000  0.93020000  1
  H  H1845  1  0.18230000  0.77520000  0.06980000  1
  H  H1846  1  0.81770000  0.22480000  0.06980000  1
  H  H1847  1  0.81770000  0.77520000  0.93020000  1
  H  H1848  1  0.06980000  0.72480000  0.68230000  1
  H  H1849  1  0.93020000  0.27520000  0.68230000  1
  H  H1850  1  0.93020000  0.72480000  0.31770000  1
  H  H1851  1  0.06980000  0.27520000  0.31770000  1
  H  H1852  1  0.18230000  0.56980000  0.72480000  1
  H  H1853  1  0.18230000  0.43020000  0.27520000  1
  H  H1854  1  0.81770000  0.43020000  0.72480000  1
  H  H1855  1  0.81770000  0.56980000  0.27520000  1
  H  H1856  1  0.22480000  0.68230000  0.56980000  1
  H  H1857  1  0.77520000  0.68230000  0.43020000  1
  H  H1858  1  0.22480000  0.31770000  0.43020000  1
  H  H1859  1  0.77520000  0.31770000  0.56980000  1
  H  H1860  1  0.22480000  0.56980000  0.31770000  1
  H  H1861  1  0.77520000  0.43020000  0.31770000  1
  H  H1862  1  0.22480000  0.43020000  0.68230000  1
  H  H1863  1  0.77520000  0.56980000  0.68230000  1
  H  H1864  1  0.06980000  0.68230000  0.27520000  1
  H  H1865  1  0.93020000  0.68230000  0.72480000  1
  H  H1866  1  0.93020000  0.31770000  0.27520000  1
  H  H1867  1  0.06980000  0.31770000  0.72480000  1
  H  H1868  1  0.18230000  0.72480000  0.43020000  1
  H  H1869  1  0.18230000  0.27520000  0.56980000  1
  H  H1870  1  0.81770000  0.72480000  0.56980000  1
  H  H1871  1  0.81770000  0.27520000  0.43020000  1
  H  H1872  1  0.56980000  0.22480000  0.68230000  1
  H  H1873  1  0.43020000  0.77520000  0.68230000  1
  H  H1874  1  0.43020000  0.22480000  0.31770000  1
  H  H1875  1  0.56980000  0.77520000  0.31770000  1
  H  H1876  1  0.68230000  0.06980000  0.72480000  1
  H  H1877  1  0.68230000  0.93020000  0.27520000  1
  H  H1878  1  0.31770000  0.93020000  0.72480000  1
  H  H1879  1  0.31770000  0.06980000  0.27520000  1
  H  H1880  1  0.72480000  0.18230000  0.56980000  1
  H  H1881  1  0.27520000  0.18230000  0.43020000  1
  H  H1882  1  0.72480000  0.81770000  0.43020000  1
  H  H1883  1  0.27520000  0.81770000  0.56980000  1
  H  H1884  1  0.72480000  0.06980000  0.31770000  1
  H  H1885  1  0.27520000  0.93020000  0.31770000  1
  H  H1886  1  0.72480000  0.93020000  0.68230000  1
  H  H1887  1  0.27520000  0.06980000  0.68230000  1
  H  H1888  1  0.56980000  0.18230000  0.27520000  1
  H  H1889  1  0.43020000  0.18230000  0.72480000  1
  H  H1890  1  0.43020000  0.81770000  0.27520000  1
  H  H1891  1  0.56980000  0.81770000  0.72480000  1
  H  H1892  1  0.68230000  0.22480000  0.43020000  1
  H  H1893  1  0.68230000  0.77520000  0.56980000  1
  H  H1894  1  0.31770000  0.22480000  0.56980000  1
  H  H1895  1  0.31770000  0.77520000  0.43020000  1
  H  H1896  1  0.56980000  0.72480000  0.18230000  1
  H  H1897  1  0.43020000  0.27520000  0.18230000  1
  H  H1898  1  0.43020000  0.72480000  0.81770000  1
  H  H1899  1  0.56980000  0.27520000  0.81770000  1
  H  H1900  1  0.68230000  0.56980000  0.22480000  1
  H  H1901  1  0.68230000  0.43020000  0.77520000  1
  H  H1902  1  0.31770000  0.43020000  0.22480000  1
  H  H1903  1  0.31770000  0.56980000  0.77520000  1
  H  H1904  1  0.72480000  0.68230000  0.06980000  1
  H  H1905  1  0.27520000  0.68230000  0.93020000  1
  H  H1906  1  0.72480000  0.31770000  0.93020000  1
  H  H1907  1  0.27520000  0.31770000  0.06980000  1
  H  H1908  1  0.72480000  0.56980000  0.81770000  1
  H  H1909  1  0.27520000  0.43020000  0.81770000  1
  H  H1910  1  0.72480000  0.43020000  0.18230000  1
  H  H1911  1  0.27520000  0.56980000  0.18230000  1
  H  H1912  1  0.56980000  0.68230000  0.77520000  1
  H  H1913  1  0.43020000  0.68230000  0.22480000  1
  H  H1914  1  0.43020000  0.31770000  0.77520000  1
  H  H1915  1  0.56980000  0.31770000  0.22480000  1
  H  H1916  1  0.68230000  0.72480000  0.93020000  1
  H  H1917  1  0.68230000  0.27520000  0.06980000  1
  H  H1918  1  0.31770000  0.72480000  0.06980000  1
  H  H1919  1  0.31770000  0.27520000  0.93020000  1
  H  H1920  1  0.93020000  0.77520000  0.81770000  1
  H  H1921  1  0.06980000  0.22480000  0.81770000  1
  H  H1922  1  0.06980000  0.77520000  0.18230000  1
  H  H1923  1  0.93020000  0.22480000  0.18230000  1
  H  H1924  1  0.81770000  0.93020000  0.77520000  1
  H  H1925  1  0.81770000  0.06980000  0.22480000  1
  H  H1926  1  0.18230000  0.06980000  0.77520000  1
  H  H1927  1  0.18230000  0.93020000  0.22480000  1
  H  H1928  1  0.77520000  0.81770000  0.93020000  1
  H  H1929  1  0.22480000  0.81770000  0.06980000  1
  H  H1930  1  0.77520000  0.18230000  0.06980000  1
  H  H1931  1  0.22480000  0.18230000  0.93020000  1
  H  H1932  1  0.77520000  0.93020000  0.18230000  1
  H  H1933  1  0.22480000  0.06980000  0.18230000  1
  H  H1934  1  0.77520000  0.06980000  0.81770000  1
  H  H1935  1  0.22480000  0.93020000  0.81770000  1
  H  H1936  1  0.93020000  0.81770000  0.22480000  1
  H  H1937  1  0.06980000  0.81770000  0.77520000  1
  H  H1938  1  0.06980000  0.18230000  0.22480000  1
  H  H1939  1  0.93020000  0.18230000  0.77520000  1
  H  H1940  1  0.81770000  0.77520000  0.06980000  1
  H  H1941  1  0.81770000  0.22480000  0.93020000  1
  H  H1942  1  0.18230000  0.77520000  0.93020000  1
  H  H1943  1  0.18230000  0.22480000  0.06980000  1
  H  H1944  1  0.93020000  0.27520000  0.31770000  1
  H  H1945  1  0.06980000  0.72480000  0.31770000  1
  H  H1946  1  0.06980000  0.27520000  0.68230000  1
  H  H1947  1  0.93020000  0.72480000  0.68230000  1
  H  H1948  1  0.81770000  0.43020000  0.27520000  1
  H  H1949  1  0.81770000  0.56980000  0.72480000  1
  H  H1950  1  0.18230000  0.56980000  0.27520000  1
  H  H1951  1  0.18230000  0.43020000  0.72480000  1
  H  H1952  1  0.77520000  0.31770000  0.43020000  1
  H  H1953  1  0.22480000  0.31770000  0.56980000  1
  H  H1954  1  0.77520000  0.68230000  0.56980000  1
  H  H1955  1  0.22480000  0.68230000  0.43020000  1
  H  H1956  1  0.77520000  0.43020000  0.68230000  1
  H  H1957  1  0.22480000  0.56980000  0.68230000  1
  H  H1958  1  0.77520000  0.56980000  0.31770000  1
  H  H1959  1  0.22480000  0.43020000  0.31770000  1
  H  H1960  1  0.93020000  0.31770000  0.72480000  1
  H  H1961  1  0.06980000  0.31770000  0.27520000  1
  H  H1962  1  0.06980000  0.68230000  0.72480000  1
  H  H1963  1  0.93020000  0.68230000  0.27520000  1
  H  H1964  1  0.81770000  0.27520000  0.56980000  1
  H  H1965  1  0.81770000  0.72480000  0.43020000  1
  H  H1966  1  0.18230000  0.27520000  0.43020000  1
  H  H1967  1  0.18230000  0.72480000  0.56980000  1
  H  H1968  1  0.43020000  0.77520000  0.31770000  1
  H  H1969  1  0.56980000  0.22480000  0.31770000  1
  H  H1970  1  0.56980000  0.77520000  0.68230000  1
  H  H1971  1  0.43020000  0.22480000  0.68230000  1
  H  H1972  1  0.31770000  0.93020000  0.27520000  1
  H  H1973  1  0.31770000  0.06980000  0.72480000  1
  H  H1974  1  0.68230000  0.06980000  0.27520000  1
  H  H1975  1  0.68230000  0.93020000  0.72480000  1
  H  H1976  1  0.27520000  0.81770000  0.43020000  1
  H  H1977  1  0.72480000  0.81770000  0.56980000  1
  H  H1978  1  0.27520000  0.18230000  0.56980000  1
  H  H1979  1  0.72480000  0.18230000  0.43020000  1
  H  H1980  1  0.27520000  0.93020000  0.68230000  1
  H  H1981  1  0.72480000  0.06980000  0.68230000  1
  H  H1982  1  0.27520000  0.06980000  0.31770000  1
  H  H1983  1  0.72480000  0.93020000  0.31770000  1
  H  H1984  1  0.43020000  0.81770000  0.72480000  1
  H  H1985  1  0.56980000  0.81770000  0.27520000  1
  H  H1986  1  0.56980000  0.18230000  0.72480000  1
  H  H1987  1  0.43020000  0.18230000  0.27520000  1
  H  H1988  1  0.31770000  0.77520000  0.56980000  1
  H  H1989  1  0.31770000  0.22480000  0.43020000  1
  H  H1990  1  0.68230000  0.77520000  0.43020000  1
  H  H1991  1  0.68230000  0.22480000  0.56980000  1
  H  H1992  1  0.43020000  0.27520000  0.81770000  1
  H  H1993  1  0.56980000  0.72480000  0.81770000  1
  H  H1994  1  0.56980000  0.27520000  0.18230000  1
  H  H1995  1  0.43020000  0.72480000  0.18230000  1
  H  H1996  1  0.31770000  0.43020000  0.77520000  1
  H  H1997  1  0.31770000  0.56980000  0.22480000  1
  H  H1998  1  0.68230000  0.56980000  0.77520000  1
  H  H1999  1  0.68230000  0.43020000  0.22480000  1
  H  H2000  1  0.27520000  0.31770000  0.93020000  1
  H  H2001  1  0.72480000  0.31770000  0.06980000  1
  H  H2002  1  0.27520000  0.68230000  0.06980000  1
  H  H2003  1  0.72480000  0.68230000  0.93020000  1
  H  H2004  1  0.27520000  0.43020000  0.18230000  1
  H  H2005  1  0.72480000  0.56980000  0.18230000  1
  H  H2006  1  0.27520000  0.56980000  0.81770000  1
  H  H2007  1  0.72480000  0.43020000  0.81770000  1
  H  H2008  1  0.43020000  0.31770000  0.22480000  1
  H  H2009  1  0.56980000  0.31770000  0.77520000  1
  H  H2010  1  0.56980000  0.68230000  0.22480000  1
  H  H2011  1  0.43020000  0.68230000  0.77520000  1
  H  H2012  1  0.31770000  0.27520000  0.06980000  1
  H  H2013  1  0.31770000  0.72480000  0.93020000  1
  H  H2014  1  0.68230000  0.27520000  0.93020000  1
  H  H2015  1  0.68230000  0.72480000  0.06980000  1
  C  C2016  1  0.04903160  0.22973150  0.20379140  1
  C  C2017  1  0.95096840  0.77026850  0.20379140  1
  C  C2018  1  0.95096840  0.22973150  0.79620860  1
  C  C2019  1  0.04903160  0.77026850  0.79620860  1
  C  C2020  1  0.20379140  0.04903160  0.22973150  1
  C  C2021  1  0.20379140  0.95096840  0.77026850  1
  C  C2022  1  0.79620860  0.95096840  0.22973150  1
  C  C2023  1  0.79620860  0.04903160  0.77026850  1
  C  C2024  1  0.22973150  0.20379140  0.04903160  1
  C  C2025  1  0.77026850  0.20379140  0.95096840  1
  C  C2026  1  0.22973150  0.79620860  0.95096840  1
  C  C2027  1  0.77026850  0.79620860  0.04903160  1
  C  C2028  1  0.22973150  0.04903160  0.79620860  1
  C  C2029  1  0.77026850  0.95096840  0.79620860  1
  C  C2030  1  0.22973150  0.95096840  0.20379140  1
  C  C2031  1  0.77026850  0.04903160  0.20379140  1
  C  C2032  1  0.04903160  0.20379140  0.77026850  1
  C  C2033  1  0.95096840  0.20379140  0.22973150  1
  C  C2034  1  0.95096840  0.79620860  0.77026850  1
  C  C2035  1  0.04903160  0.79620860  0.22973150  1
  C  C2036  1  0.20379140  0.22973150  0.95096840  1
  C  C2037  1  0.20379140  0.77026850  0.04903160  1
  C  C2038  1  0.79620860  0.22973150  0.04903160  1
  C  C2039  1  0.79620860  0.77026850  0.95096840  1
  C  C2040  1  0.04903160  0.72973150  0.70379140  1
  C  C2041  1  0.95096840  0.27026850  0.70379140  1
  C  C2042  1  0.95096840  0.72973150  0.29620860  1
  C  C2043  1  0.04903160  0.27026850  0.29620860  1
  C  C2044  1  0.20379140  0.54903160  0.72973150  1
  C  C2045  1  0.20379140  0.45096840  0.27026850  1
  C  C2046  1  0.79620860  0.45096840  0.72973150  1
  C  C2047  1  0.79620860  0.54903160  0.27026850  1
  C  C2048  1  0.22973150  0.70379140  0.54903160  1
  C  C2049  1  0.77026850  0.70379140  0.45096840  1
  C  C2050  1  0.22973150  0.29620860  0.45096840  1
  C  C2051  1  0.77026850  0.29620860  0.54903160  1
  C  C2052  1  0.22973150  0.54903160  0.29620860  1
  C  C2053  1  0.77026850  0.45096840  0.29620860  1
  C  C2054  1  0.22973150  0.45096840  0.70379140  1
  C  C2055  1  0.77026850  0.54903160  0.70379140  1
  C  C2056  1  0.04903160  0.70379140  0.27026850  1
  C  C2057  1  0.95096840  0.70379140  0.72973150  1
  C  C2058  1  0.95096840  0.29620860  0.27026850  1
  C  C2059  1  0.04903160  0.29620860  0.72973150  1
  C  C2060  1  0.20379140  0.72973150  0.45096840  1
  C  C2061  1  0.20379140  0.27026850  0.54903160  1
  C  C2062  1  0.79620860  0.72973150  0.54903160  1
  C  C2063  1  0.79620860  0.27026850  0.45096840  1
  C  C2064  1  0.54903160  0.22973150  0.70379140  1
  C  C2065  1  0.45096840  0.77026850  0.70379140  1
  C  C2066  1  0.45096840  0.22973150  0.29620860  1
  C  C2067  1  0.54903160  0.77026850  0.29620860  1
  C  C2068  1  0.70379140  0.04903160  0.72973150  1
  C  C2069  1  0.70379140  0.95096840  0.27026850  1
  C  C2070  1  0.29620860  0.95096840  0.72973150  1
  C  C2071  1  0.29620860  0.04903160  0.27026850  1
  C  C2072  1  0.72973150  0.20379140  0.54903160  1
  C  C2073  1  0.27026850  0.20379140  0.45096840  1
  C  C2074  1  0.72973150  0.79620860  0.45096840  1
  C  C2075  1  0.27026850  0.79620860  0.54903160  1
  C  C2076  1  0.72973150  0.04903160  0.29620860  1
  C  C2077  1  0.27026850  0.95096840  0.29620860  1
  C  C2078  1  0.72973150  0.95096840  0.70379140  1
  C  C2079  1  0.27026850  0.04903160  0.70379140  1
  C  C2080  1  0.54903160  0.20379140  0.27026850  1
  C  C2081  1  0.45096840  0.20379140  0.72973150  1
  C  C2082  1  0.45096840  0.79620860  0.27026850  1
  C  C2083  1  0.54903160  0.79620860  0.72973150  1
  C  C2084  1  0.70379140  0.22973150  0.45096840  1
  C  C2085  1  0.70379140  0.77026850  0.54903160  1
  C  C2086  1  0.29620860  0.22973150  0.54903160  1
  C  C2087  1  0.29620860  0.77026850  0.45096840  1
  C  C2088  1  0.54903160  0.72973150  0.20379140  1
  C  C2089  1  0.45096840  0.27026850  0.20379140  1
  C  C2090  1  0.45096840  0.72973150  0.79620860  1
  C  C2091  1  0.54903160  0.27026850  0.79620860  1
  C  C2092  1  0.70379140  0.54903160  0.22973150  1
  C  C2093  1  0.70379140  0.45096840  0.77026850  1
  C  C2094  1  0.29620860  0.45096840  0.22973150  1
  C  C2095  1  0.29620860  0.54903160  0.77026850  1
  C  C2096  1  0.72973150  0.70379140  0.04903160  1
  C  C2097  1  0.27026850  0.70379140  0.95096840  1
  C  C2098  1  0.72973150  0.29620860  0.95096840  1
  C  C2099  1  0.27026850  0.29620860  0.04903160  1
  C  C2100  1  0.72973150  0.54903160  0.79620860  1
  C  C2101  1  0.27026850  0.45096840  0.79620860  1
  C  C2102  1  0.72973150  0.45096840  0.20379140  1
  C  C2103  1  0.27026850  0.54903160  0.20379140  1
  C  C2104  1  0.54903160  0.70379140  0.77026850  1
  C  C2105  1  0.45096840  0.70379140  0.22973150  1
  C  C2106  1  0.45096840  0.29620860  0.77026850  1
  C  C2107  1  0.54903160  0.29620860  0.22973150  1
  C  C2108  1  0.70379140  0.72973150  0.95096840  1
  C  C2109  1  0.70379140  0.27026850  0.04903160  1
  C  C2110  1  0.29620860  0.72973150  0.04903160  1
  C  C2111  1  0.29620860  0.27026850  0.95096840  1
  C  C2112  1  0.95096840  0.77026850  0.79620860  1
  C  C2113  1  0.04903160  0.22973150  0.79620860  1
  C  C2114  1  0.04903160  0.77026850  0.20379140  1
  C  C2115  1  0.95096840  0.22973150  0.20379140  1
  C  C2116  1  0.79620860  0.95096840  0.77026850  1
  C  C2117  1  0.79620860  0.04903160  0.22973150  1
  C  C2118  1  0.20379140  0.04903160  0.77026850  1
  C  C2119  1  0.20379140  0.95096840  0.22973150  1
  C  C2120  1  0.77026850  0.79620860  0.95096840  1
  C  C2121  1  0.22973150  0.79620860  0.04903160  1
  C  C2122  1  0.77026850  0.20379140  0.04903160  1
  C  C2123  1  0.22973150  0.20379140  0.95096840  1
  C  C2124  1  0.77026850  0.95096840  0.20379140  1
  C  C2125  1  0.22973150  0.04903160  0.20379140  1
  C  C2126  1  0.77026850  0.04903160  0.79620860  1
  C  C2127  1  0.22973150  0.95096840  0.79620860  1
  C  C2128  1  0.95096840  0.79620860  0.22973150  1
  C  C2129  1  0.04903160  0.79620860  0.77026850  1
  C  C2130  1  0.04903160  0.20379140  0.22973150  1
  C  C2131  1  0.95096840  0.20379140  0.77026850  1
  C  C2132  1  0.79620860  0.77026850  0.04903160  1
  C  C2133  1  0.79620860  0.22973150  0.95096840  1
  C  C2134  1  0.20379140  0.77026850  0.95096840  1
  C  C2135  1  0.20379140  0.22973150  0.04903160  1
  C  C2136  1  0.95096840  0.27026850  0.29620860  1
  C  C2137  1  0.04903160  0.72973150  0.29620860  1
  C  C2138  1  0.04903160  0.27026850  0.70379140  1
  C  C2139  1  0.95096840  0.72973150  0.70379140  1
  C  C2140  1  0.79620860  0.45096840  0.27026850  1
  C  C2141  1  0.79620860  0.54903160  0.72973150  1
  C  C2142  1  0.20379140  0.54903160  0.27026850  1
  C  C2143  1  0.20379140  0.45096840  0.72973150  1
  C  C2144  1  0.77026850  0.29620860  0.45096840  1
  C  C2145  1  0.22973150  0.29620860  0.54903160  1
  C  C2146  1  0.77026850  0.70379140  0.54903160  1
  C  C2147  1  0.22973150  0.70379140  0.45096840  1
  C  C2148  1  0.77026850  0.45096840  0.70379140  1
  C  C2149  1  0.22973150  0.54903160  0.70379140  1
  C  C2150  1  0.77026850  0.54903160  0.29620860  1
  C  C2151  1  0.22973150  0.45096840  0.29620860  1
  C  C2152  1  0.95096840  0.29620860  0.72973150  1
  C  C2153  1  0.04903160  0.29620860  0.27026850  1
  C  C2154  1  0.04903160  0.70379140  0.72973150  1
  C  C2155  1  0.95096840  0.70379140  0.27026850  1
  C  C2156  1  0.79620860  0.27026850  0.54903160  1
  C  C2157  1  0.79620860  0.72973150  0.45096840  1
  C  C2158  1  0.20379140  0.27026850  0.45096840  1
  C  C2159  1  0.20379140  0.72973150  0.54903160  1
  C  C2160  1  0.45096840  0.77026850  0.29620860  1
  C  C2161  1  0.54903160  0.22973150  0.29620860  1
  C  C2162  1  0.54903160  0.77026850  0.70379140  1
  C  C2163  1  0.45096840  0.22973150  0.70379140  1
  C  C2164  1  0.29620860  0.95096840  0.27026850  1
  C  C2165  1  0.29620860  0.04903160  0.72973150  1
  C  C2166  1  0.70379140  0.04903160  0.27026850  1
  C  C2167  1  0.70379140  0.95096840  0.72973150  1
  C  C2168  1  0.27026850  0.79620860  0.45096840  1
  C  C2169  1  0.72973150  0.79620860  0.54903160  1
  C  C2170  1  0.27026850  0.20379140  0.54903160  1
  C  C2171  1  0.72973150  0.20379140  0.45096840  1
  C  C2172  1  0.27026850  0.95096840  0.70379140  1
  C  C2173  1  0.72973150  0.04903160  0.70379140  1
  C  C2174  1  0.27026850  0.04903160  0.29620860  1
  C  C2175  1  0.72973150  0.95096840  0.29620860  1
  C  C2176  1  0.45096840  0.79620860  0.72973150  1
  C  C2177  1  0.54903160  0.79620860  0.27026850  1
  C  C2178  1  0.54903160  0.20379140  0.72973150  1
  C  C2179  1  0.45096840  0.20379140  0.27026850  1
  C  C2180  1  0.29620860  0.77026850  0.54903160  1
  C  C2181  1  0.29620860  0.22973150  0.45096840  1
  C  C2182  1  0.70379140  0.77026850  0.45096840  1
  C  C2183  1  0.70379140  0.22973150  0.54903160  1
  C  C2184  1  0.45096840  0.27026850  0.79620860  1
  C  C2185  1  0.54903160  0.72973150  0.79620860  1
  C  C2186  1  0.54903160  0.27026850  0.20379140  1
  C  C2187  1  0.45096840  0.72973150  0.20379140  1
  C  C2188  1  0.29620860  0.45096840  0.77026850  1
  C  C2189  1  0.29620860  0.54903160  0.22973150  1
  C  C2190  1  0.70379140  0.54903160  0.77026850  1
  C  C2191  1  0.70379140  0.45096840  0.22973150  1
  C  C2192  1  0.27026850  0.29620860  0.95096840  1
  C  C2193  1  0.72973150  0.29620860  0.04903160  1
  C  C2194  1  0.27026850  0.70379140  0.04903160  1
  C  C2195  1  0.72973150  0.70379140  0.95096840  1
  C  C2196  1  0.27026850  0.45096840  0.20379140  1
  C  C2197  1  0.72973150  0.54903160  0.20379140  1
  C  C2198  1  0.27026850  0.54903160  0.79620860  1
  C  C2199  1  0.72973150  0.45096840  0.79620860  1
  C  C2200  1  0.45096840  0.29620860  0.22973150  1
  C  C2201  1  0.54903160  0.29620860  0.77026850  1
  C  C2202  1  0.54903160  0.70379140  0.22973150  1
  C  C2203  1  0.45096840  0.70379140  0.77026850  1
  C  C2204  1  0.29620860  0.27026850  0.04903160  1
  C  C2205  1  0.29620860  0.72973150  0.95096840  1
  C  C2206  1  0.70379140  0.27026850  0.95096840  1
  C  C2207  1  0.70379140  0.72973150  0.04903160  1
  H  H2208  1  0.04440000  0.24160000  0.19910000  1
  H  H2209  1  0.95560000  0.75840000  0.19910000  1
  H  H2210  1  0.95560000  0.24160000  0.80090000  1
  H  H2211  1  0.04440000  0.75840000  0.80090000  1
  H  H2212  1  0.19910000  0.04440000  0.24160000  1
  H  H2213  1  0.19910000  0.95560000  0.75840000  1
  H  H2214  1  0.80090000  0.95560000  0.24160000  1
  H  H2215  1  0.80090000  0.04440000  0.75840000  1
  H  H2216  1  0.24160000  0.19910000  0.04440000  1
  H  H2217  1  0.75840000  0.19910000  0.95560000  1
  H  H2218  1  0.24160000  0.80090000  0.95560000  1
  H  H2219  1  0.75840000  0.80090000  0.04440000  1
  H  H2220  1  0.24160000  0.04440000  0.80090000  1
  H  H2221  1  0.75840000  0.95560000  0.80090000  1
  H  H2222  1  0.24160000  0.95560000  0.19910000  1
  H  H2223  1  0.75840000  0.04440000  0.19910000  1
  H  H2224  1  0.04440000  0.19910000  0.75840000  1
  H  H2225  1  0.95560000  0.19910000  0.24160000  1
  H  H2226  1  0.95560000  0.80090000  0.75840000  1
  H  H2227  1  0.04440000  0.80090000  0.24160000  1
  H  H2228  1  0.19910000  0.24160000  0.95560000  1
  H  H2229  1  0.19910000  0.75840000  0.04440000  1
  H  H2230  1  0.80090000  0.24160000  0.04440000  1
  H  H2231  1  0.80090000  0.75840000  0.95560000  1
  H  H2232  1  0.04440000  0.74160000  0.69910000  1
  H  H2233  1  0.95560000  0.25840000  0.69910000  1
  H  H2234  1  0.95560000  0.74160000  0.30090000  1
  H  H2235  1  0.04440000  0.25840000  0.30090000  1
  H  H2236  1  0.19910000  0.54440000  0.74160000  1
  H  H2237  1  0.19910000  0.45560000  0.25840000  1
  H  H2238  1  0.80090000  0.45560000  0.74160000  1
  H  H2239  1  0.80090000  0.54440000  0.25840000  1
  H  H2240  1  0.24160000  0.69910000  0.54440000  1
  H  H2241  1  0.75840000  0.69910000  0.45560000  1
  H  H2242  1  0.24160000  0.30090000  0.45560000  1
  H  H2243  1  0.75840000  0.30090000  0.54440000  1
  H  H2244  1  0.24160000  0.54440000  0.30090000  1
  H  H2245  1  0.75840000  0.45560000  0.30090000  1
  H  H2246  1  0.24160000  0.45560000  0.69910000  1
  H  H2247  1  0.75840000  0.54440000  0.69910000  1
  H  H2248  1  0.04440000  0.69910000  0.25840000  1
  H  H2249  1  0.95560000  0.69910000  0.74160000  1
  H  H2250  1  0.95560000  0.30090000  0.25840000  1
  H  H2251  1  0.04440000  0.30090000  0.74160000  1
  H  H2252  1  0.19910000  0.74160000  0.45560000  1
  H  H2253  1  0.19910000  0.25840000  0.54440000  1
  H  H2254  1  0.80090000  0.74160000  0.54440000  1
  H  H2255  1  0.80090000  0.25840000  0.45560000  1
  H  H2256  1  0.54440000  0.24160000  0.69910000  1
  H  H2257  1  0.45560000  0.75840000  0.69910000  1
  H  H2258  1  0.45560000  0.24160000  0.30090000  1
  H  H2259  1  0.54440000  0.75840000  0.30090000  1
  H  H2260  1  0.69910000  0.04440000  0.74160000  1
  H  H2261  1  0.69910000  0.95560000  0.25840000  1
  H  H2262  1  0.30090000  0.95560000  0.74160000  1
  H  H2263  1  0.30090000  0.04440000  0.25840000  1
  H  H2264  1  0.74160000  0.19910000  0.54440000  1
  H  H2265  1  0.25840000  0.19910000  0.45560000  1
  H  H2266  1  0.74160000  0.80090000  0.45560000  1
  H  H2267  1  0.25840000  0.80090000  0.54440000  1
  H  H2268  1  0.74160000  0.04440000  0.30090000  1
  H  H2269  1  0.25840000  0.95560000  0.30090000  1
  H  H2270  1  0.74160000  0.95560000  0.69910000  1
  H  H2271  1  0.25840000  0.04440000  0.69910000  1
  H  H2272  1  0.54440000  0.19910000  0.25840000  1
  H  H2273  1  0.45560000  0.19910000  0.74160000  1
  H  H2274  1  0.45560000  0.80090000  0.25840000  1
  H  H2275  1  0.54440000  0.80090000  0.74160000  1
  H  H2276  1  0.69910000  0.24160000  0.45560000  1
  H  H2277  1  0.69910000  0.75840000  0.54440000  1
  H  H2278  1  0.30090000  0.24160000  0.54440000  1
  H  H2279  1  0.30090000  0.75840000  0.45560000  1
  H  H2280  1  0.54440000  0.74160000  0.19910000  1
  H  H2281  1  0.45560000  0.25840000  0.19910000  1
  H  H2282  1  0.45560000  0.74160000  0.80090000  1
  H  H2283  1  0.54440000  0.25840000  0.80090000  1
  H  H2284  1  0.69910000  0.54440000  0.24160000  1
  H  H2285  1  0.69910000  0.45560000  0.75840000  1
  H  H2286  1  0.30090000  0.45560000  0.24160000  1
  H  H2287  1  0.30090000  0.54440000  0.75840000  1
  H  H2288  1  0.74160000  0.69910000  0.04440000  1
  H  H2289  1  0.25840000  0.69910000  0.95560000  1
  H  H2290  1  0.74160000  0.30090000  0.95560000  1
  H  H2291  1  0.25840000  0.30090000  0.04440000  1
  H  H2292  1  0.74160000  0.54440000  0.80090000  1
  H  H2293  1  0.25840000  0.45560000  0.80090000  1
  H  H2294  1  0.74160000  0.45560000  0.19910000  1
  H  H2295  1  0.25840000  0.54440000  0.19910000  1
  H  H2296  1  0.54440000  0.69910000  0.75840000  1
  H  H2297  1  0.45560000  0.69910000  0.24160000  1
  H  H2298  1  0.45560000  0.30090000  0.75840000  1
  H  H2299  1  0.54440000  0.30090000  0.24160000  1
  H  H2300  1  0.69910000  0.74160000  0.95560000  1
  H  H2301  1  0.69910000  0.25840000  0.04440000  1
  H  H2302  1  0.30090000  0.74160000  0.04440000  1
  H  H2303  1  0.30090000  0.25840000  0.95560000  1
  H  H2304  1  0.95560000  0.75840000  0.80090000  1
  H  H2305  1  0.04440000  0.24160000  0.80090000  1
  H  H2306  1  0.04440000  0.75840000  0.19910000  1
  H  H2307  1  0.95560000  0.24160000  0.19910000  1
  H  H2308  1  0.80090000  0.95560000  0.75840000  1
  H  H2309  1  0.80090000  0.04440000  0.24160000  1
  H  H2310  1  0.19910000  0.04440000  0.75840000  1
  H  H2311  1  0.19910000  0.95560000  0.24160000  1
  H  H2312  1  0.75840000  0.80090000  0.95560000  1
  H  H2313  1  0.24160000  0.80090000  0.04440000  1
  H  H2314  1  0.75840000  0.19910000  0.04440000  1
  H  H2315  1  0.24160000  0.19910000  0.95560000  1
  H  H2316  1  0.75840000  0.95560000  0.19910000  1
  H  H2317  1  0.24160000  0.04440000  0.19910000  1
  H  H2318  1  0.75840000  0.04440000  0.80090000  1
  H  H2319  1  0.24160000  0.95560000  0.80090000  1
  H  H2320  1  0.95560000  0.80090000  0.24160000  1
  H  H2321  1  0.04440000  0.80090000  0.75840000  1
  H  H2322  1  0.04440000  0.19910000  0.24160000  1
  H  H2323  1  0.95560000  0.19910000  0.75840000  1
  H  H2324  1  0.80090000  0.75840000  0.04440000  1
  H  H2325  1  0.80090000  0.24160000  0.95560000  1
  H  H2326  1  0.19910000  0.75840000  0.95560000  1
  H  H2327  1  0.19910000  0.24160000  0.04440000  1
  H  H2328  1  0.95560000  0.25840000  0.30090000  1
  H  H2329  1  0.04440000  0.74160000  0.30090000  1
  H  H2330  1  0.04440000  0.25840000  0.69910000  1
  H  H2331  1  0.95560000  0.74160000  0.69910000  1
  H  H2332  1  0.80090000  0.45560000  0.25840000  1
  H  H2333  1  0.80090000  0.54440000  0.74160000  1
  H  H2334  1  0.19910000  0.54440000  0.25840000  1
  H  H2335  1  0.19910000  0.45560000  0.74160000  1
  H  H2336  1  0.75840000  0.30090000  0.45560000  1
  H  H2337  1  0.24160000  0.30090000  0.54440000  1
  H  H2338  1  0.75840000  0.69910000  0.54440000  1
  H  H2339  1  0.24160000  0.69910000  0.45560000  1
  H  H2340  1  0.75840000  0.45560000  0.69910000  1
  H  H2341  1  0.24160000  0.54440000  0.69910000  1
  H  H2342  1  0.75840000  0.54440000  0.30090000  1
  H  H2343  1  0.24160000  0.45560000  0.30090000  1
  H  H2344  1  0.95560000  0.30090000  0.74160000  1
  H  H2345  1  0.04440000  0.30090000  0.25840000  1
  H  H2346  1  0.04440000  0.69910000  0.74160000  1
  H  H2347  1  0.95560000  0.69910000  0.25840000  1
  H  H2348  1  0.80090000  0.25840000  0.54440000  1
  H  H2349  1  0.80090000  0.74160000  0.45560000  1
  H  H2350  1  0.19910000  0.25840000  0.45560000  1
  H  H2351  1  0.19910000  0.74160000  0.54440000  1
  H  H2352  1  0.45560000  0.75840000  0.30090000  1
  H  H2353  1  0.54440000  0.24160000  0.30090000  1
  H  H2354  1  0.54440000  0.75840000  0.69910000  1
  H  H2355  1  0.45560000  0.24160000  0.69910000  1
  H  H2356  1  0.30090000  0.95560000  0.25840000  1
  H  H2357  1  0.30090000  0.04440000  0.74160000  1
  H  H2358  1  0.69910000  0.04440000  0.25840000  1
  H  H2359  1  0.69910000  0.95560000  0.74160000  1
  H  H2360  1  0.25840000  0.80090000  0.45560000  1
  H  H2361  1  0.74160000  0.80090000  0.54440000  1
  H  H2362  1  0.25840000  0.19910000  0.54440000  1
  H  H2363  1  0.74160000  0.19910000  0.45560000  1
  H  H2364  1  0.25840000  0.95560000  0.69910000  1
  H  H2365  1  0.74160000  0.04440000  0.69910000  1
  H  H2366  1  0.25840000  0.04440000  0.30090000  1
  H  H2367  1  0.74160000  0.95560000  0.30090000  1
  H  H2368  1  0.45560000  0.80090000  0.74160000  1
  H  H2369  1  0.54440000  0.80090000  0.25840000  1
  H  H2370  1  0.54440000  0.19910000  0.74160000  1
  H  H2371  1  0.45560000  0.19910000  0.25840000  1
  H  H2372  1  0.30090000  0.75840000  0.54440000  1
  H  H2373  1  0.30090000  0.24160000  0.45560000  1
  H  H2374  1  0.69910000  0.75840000  0.45560000  1
  H  H2375  1  0.69910000  0.24160000  0.54440000  1
  H  H2376  1  0.45560000  0.25840000  0.80090000  1
  H  H2377  1  0.54440000  0.74160000  0.80090000  1
  H  H2378  1  0.54440000  0.25840000  0.19910000  1
  H  H2379  1  0.45560000  0.74160000  0.19910000  1
  H  H2380  1  0.30090000  0.45560000  0.75840000  1
  H  H2381  1  0.30090000  0.54440000  0.24160000  1
  H  H2382  1  0.69910000  0.54440000  0.75840000  1
  H  H2383  1  0.69910000  0.45560000  0.24160000  1
  H  H2384  1  0.25840000  0.30090000  0.95560000  1
  H  H2385  1  0.74160000  0.30090000  0.04440000  1
  H  H2386  1  0.25840000  0.69910000  0.04440000  1
  H  H2387  1  0.74160000  0.69910000  0.95560000  1
  H  H2388  1  0.25840000  0.45560000  0.19910000  1
  H  H2389  1  0.74160000  0.54440000  0.19910000  1
  H  H2390  1  0.25840000  0.54440000  0.80090000  1
  H  H2391  1  0.74160000  0.45560000  0.80090000  1
  H  H2392  1  0.45560000  0.30090000  0.24160000  1
  H  H2393  1  0.54440000  0.30090000  0.75840000  1
  H  H2394  1  0.54440000  0.69910000  0.24160000  1
  H  H2395  1  0.45560000  0.69910000  0.75840000  1
  H  H2396  1  0.30090000  0.25840000  0.04440000  1
  H  H2397  1  0.30090000  0.74160000  0.95560000  1
  H  H2398  1  0.69910000  0.25840000  0.95560000  1
  H  H2399  1  0.69910000  0.74160000  0.04440000  1
  C  C2400  1  0.04082000  0.22109150  0.22109150  1
  C  C2401  1  0.95918000  0.77890850  0.22109150  1
  C  C2402  1  0.95918000  0.22109150  0.77890850  1
  C  C2403  1  0.04082000  0.77890850  0.77890850  1
  C  C2404  1  0.22109150  0.04082000  0.22109150  1
  C  C2405  1  0.22109150  0.95918000  0.77890850  1
  C  C2406  1  0.77890850  0.95918000  0.22109150  1
  C  C2407  1  0.77890850  0.04082000  0.77890850  1
  C  C2408  1  0.22109150  0.22109150  0.04082000  1
  C  C2409  1  0.77890850  0.22109150  0.95918000  1
  C  C2410  1  0.22109150  0.77890850  0.95918000  1
  C  C2411  1  0.77890850  0.77890850  0.04082000  1
  C  C2412  1  0.22109150  0.04082000  0.77890850  1
  C  C2413  1  0.77890850  0.95918000  0.77890850  1
  C  C2414  1  0.22109150  0.95918000  0.22109150  1
  C  C2415  1  0.77890850  0.04082000  0.22109150  1
  C  C2416  1  0.04082000  0.22109150  0.77890850  1
  C  C2417  1  0.95918000  0.22109150  0.22109150  1
  C  C2418  1  0.95918000  0.77890850  0.77890850  1
  C  C2419  1  0.04082000  0.77890850  0.22109150  1
  C  C2420  1  0.22109150  0.22109150  0.95918000  1
  C  C2421  1  0.22109150  0.77890850  0.04082000  1
  C  C2422  1  0.77890850  0.22109150  0.04082000  1
  C  C2423  1  0.77890850  0.77890850  0.95918000  1
  C  C2424  1  0.04082000  0.72109150  0.72109150  1
  C  C2425  1  0.95918000  0.27890850  0.72109150  1
  C  C2426  1  0.95918000  0.72109150  0.27890850  1
  C  C2427  1  0.04082000  0.27890850  0.27890850  1
  C  C2428  1  0.22109150  0.54082000  0.72109150  1
  C  C2429  1  0.22109150  0.45918000  0.27890850  1
  C  C2430  1  0.77890850  0.45918000  0.72109150  1
  C  C2431  1  0.77890850  0.54082000  0.27890850  1
  C  C2432  1  0.22109150  0.72109150  0.54082000  1
  C  C2433  1  0.77890850  0.72109150  0.45918000  1
  C  C2434  1  0.22109150  0.27890850  0.45918000  1
  C  C2435  1  0.77890850  0.27890850  0.54082000  1
  C  C2436  1  0.22109150  0.54082000  0.27890850  1
  C  C2437  1  0.77890850  0.45918000  0.27890850  1
  C  C2438  1  0.22109150  0.45918000  0.72109150  1
  C  C2439  1  0.77890850  0.54082000  0.72109150  1
  C  C2440  1  0.04082000  0.72109150  0.27890850  1
  C  C2441  1  0.95918000  0.72109150  0.72109150  1
  C  C2442  1  0.95918000  0.27890850  0.27890850  1
  C  C2443  1  0.04082000  0.27890850  0.72109150  1
  C  C2444  1  0.22109150  0.72109150  0.45918000  1
  C  C2445  1  0.22109150  0.27890850  0.54082000  1
  C  C2446  1  0.77890850  0.72109150  0.54082000  1
  C  C2447  1  0.77890850  0.27890850  0.45918000  1
  C  C2448  1  0.54082000  0.22109150  0.72109150  1
  C  C2449  1  0.45918000  0.77890850  0.72109150  1
  C  C2450  1  0.45918000  0.22109150  0.27890850  1
  C  C2451  1  0.54082000  0.77890850  0.27890850  1
  C  C2452  1  0.72109150  0.04082000  0.72109150  1
  C  C2453  1  0.72109150  0.95918000  0.27890850  1
  C  C2454  1  0.27890850  0.95918000  0.72109150  1
  C  C2455  1  0.27890850  0.04082000  0.27890850  1
  C  C2456  1  0.72109150  0.22109150  0.54082000  1
  C  C2457  1  0.27890850  0.22109150  0.45918000  1
  C  C2458  1  0.72109150  0.77890850  0.45918000  1
  C  C2459  1  0.27890850  0.77890850  0.54082000  1
  C  C2460  1  0.72109150  0.04082000  0.27890850  1
  C  C2461  1  0.27890850  0.95918000  0.27890850  1
  C  C2462  1  0.72109150  0.95918000  0.72109150  1
  C  C2463  1  0.27890850  0.04082000  0.72109150  1
  C  C2464  1  0.54082000  0.22109150  0.27890850  1
  C  C2465  1  0.45918000  0.22109150  0.72109150  1
  C  C2466  1  0.45918000  0.77890850  0.27890850  1
  C  C2467  1  0.54082000  0.77890850  0.72109150  1
  C  C2468  1  0.72109150  0.22109150  0.45918000  1
  C  C2469  1  0.72109150  0.77890850  0.54082000  1
  C  C2470  1  0.27890850  0.22109150  0.54082000  1
  C  C2471  1  0.27890850  0.77890850  0.45918000  1
  C  C2472  1  0.54082000  0.72109150  0.22109150  1
  C  C2473  1  0.45918000  0.27890850  0.22109150  1
  C  C2474  1  0.45918000  0.72109150  0.77890850  1
  C  C2475  1  0.54082000  0.27890850  0.77890850  1
  C  C2476  1  0.72109150  0.54082000  0.22109150  1
  C  C2477  1  0.72109150  0.45918000  0.77890850  1
  C  C2478  1  0.27890850  0.45918000  0.22109150  1
  C  C2479  1  0.27890850  0.54082000  0.77890850  1
  C  C2480  1  0.72109150  0.72109150  0.04082000  1
  C  C2481  1  0.27890850  0.72109150  0.95918000  1
  C  C2482  1  0.72109150  0.27890850  0.95918000  1
  C  C2483  1  0.27890850  0.27890850  0.04082000  1
  C  C2484  1  0.72109150  0.54082000  0.77890850  1
  C  C2485  1  0.27890850  0.45918000  0.77890850  1
  C  C2486  1  0.72109150  0.45918000  0.22109150  1
  C  C2487  1  0.27890850  0.54082000  0.22109150  1
  C  C2488  1  0.54082000  0.72109150  0.77890850  1
  C  C2489  1  0.45918000  0.72109150  0.22109150  1
  C  C2490  1  0.45918000  0.27890850  0.77890850  1
  C  C2491  1  0.54082000  0.27890850  0.22109150  1
  C  C2492  1  0.72109150  0.72109150  0.95918000  1
  C  C2493  1  0.72109150  0.27890850  0.04082000  1
  C  C2494  1  0.27890850  0.72109150  0.04082000  1
  C  C2495  1  0.27890850  0.27890850  0.95918000  1
  C  C2496  1  0.02522000  0.23254180  0.23254180  1
  C  C2497  1  0.97478000  0.76745820  0.23254180  1
  C  C2498  1  0.97478000  0.23254180  0.76745820  1
  C  C2499  1  0.02522000  0.76745820  0.76745820  1
  C  C2500  1  0.23254180  0.02522000  0.23254180  1
  C  C2501  1  0.23254180  0.97478000  0.76745820  1
  C  C2502  1  0.76745820  0.97478000  0.23254180  1
  C  C2503  1  0.76745820  0.02522000  0.76745820  1
  C  C2504  1  0.23254180  0.23254180  0.02522000  1
  C  C2505  1  0.76745820  0.23254180  0.97478000  1
  C  C2506  1  0.23254180  0.76745820  0.97478000  1
  C  C2507  1  0.76745820  0.76745820  0.02522000  1
  C  C2508  1  0.23254180  0.02522000  0.76745820  1
  C  C2509  1  0.76745820  0.97478000  0.76745820  1
  C  C2510  1  0.23254180  0.97478000  0.23254180  1
  C  C2511  1  0.76745820  0.02522000  0.23254180  1
  C  C2512  1  0.02522000  0.23254180  0.76745820  1
  C  C2513  1  0.97478000  0.23254180  0.23254180  1
  C  C2514  1  0.97478000  0.76745820  0.76745820  1
  C  C2515  1  0.02522000  0.76745820  0.23254180  1
  C  C2516  1  0.23254180  0.23254180  0.97478000  1
  C  C2517  1  0.23254180  0.76745820  0.02522000  1
  C  C2518  1  0.76745820  0.23254180  0.02522000  1
  C  C2519  1  0.76745820  0.76745820  0.97478000  1
  C  C2520  1  0.02522000  0.73254180  0.73254180  1
  C  C2521  1  0.97478000  0.26745820  0.73254180  1
  C  C2522  1  0.97478000  0.73254180  0.26745820  1
  C  C2523  1  0.02522000  0.26745820  0.26745820  1
  C  C2524  1  0.23254180  0.52522000  0.73254180  1
  C  C2525  1  0.23254180  0.47478000  0.26745820  1
  C  C2526  1  0.76745820  0.47478000  0.73254180  1
  C  C2527  1  0.76745820  0.52522000  0.26745820  1
  C  C2528  1  0.23254180  0.73254180  0.52522000  1
  C  C2529  1  0.76745820  0.73254180  0.47478000  1
  C  C2530  1  0.23254180  0.26745820  0.47478000  1
  C  C2531  1  0.76745820  0.26745820  0.52522000  1
  C  C2532  1  0.23254180  0.52522000  0.26745820  1
  C  C2533  1  0.76745820  0.47478000  0.26745820  1
  C  C2534  1  0.23254180  0.47478000  0.73254180  1
  C  C2535  1  0.76745820  0.52522000  0.73254180  1
  C  C2536  1  0.02522000  0.73254180  0.26745820  1
  C  C2537  1  0.97478000  0.73254180  0.73254180  1
  C  C2538  1  0.97478000  0.26745820  0.26745820  1
  C  C2539  1  0.02522000  0.26745820  0.73254180  1
  C  C2540  1  0.23254180  0.73254180  0.47478000  1
  C  C2541  1  0.23254180  0.26745820  0.52522000  1
  C  C2542  1  0.76745820  0.73254180  0.52522000  1
  C  C2543  1  0.76745820  0.26745820  0.47478000  1
  C  C2544  1  0.52522000  0.23254180  0.73254180  1
  C  C2545  1  0.47478000  0.76745820  0.73254180  1
  C  C2546  1  0.47478000  0.23254180  0.26745820  1
  C  C2547  1  0.52522000  0.76745820  0.26745820  1
  C  C2548  1  0.73254180  0.02522000  0.73254180  1
  C  C2549  1  0.73254180  0.97478000  0.26745820  1
  C  C2550  1  0.26745820  0.97478000  0.73254180  1
  C  C2551  1  0.26745820  0.02522000  0.26745820  1
  C  C2552  1  0.73254180  0.23254180  0.52522000  1
  C  C2553  1  0.26745820  0.23254180  0.47478000  1
  C  C2554  1  0.73254180  0.76745820  0.47478000  1
  C  C2555  1  0.26745820  0.76745820  0.52522000  1
  C  C2556  1  0.73254180  0.02522000  0.26745820  1
  C  C2557  1  0.26745820  0.97478000  0.26745820  1
  C  C2558  1  0.73254180  0.97478000  0.73254180  1
  C  C2559  1  0.26745820  0.02522000  0.73254180  1
  C  C2560  1  0.52522000  0.23254180  0.26745820  1
  C  C2561  1  0.47478000  0.23254180  0.73254180  1
  C  C2562  1  0.47478000  0.76745820  0.26745820  1
  C  C2563  1  0.52522000  0.76745820  0.73254180  1
  C  C2564  1  0.73254180  0.23254180  0.47478000  1
  C  C2565  1  0.73254180  0.76745820  0.52522000  1
  C  C2566  1  0.26745820  0.23254180  0.52522000  1
  C  C2567  1  0.26745820  0.76745820  0.47478000  1
  C  C2568  1  0.52522000  0.73254180  0.23254180  1
  C  C2569  1  0.47478000  0.26745820  0.23254180  1
  C  C2570  1  0.47478000  0.73254180  0.76745820  1
  C  C2571  1  0.52522000  0.26745820  0.76745820  1
  C  C2572  1  0.73254180  0.52522000  0.23254180  1
  C  C2573  1  0.73254180  0.47478000  0.76745820  1
  C  C2574  1  0.26745820  0.47478000  0.23254180  1
  C  C2575  1  0.26745820  0.52522000  0.76745820  1
  C  C2576  1  0.73254180  0.73254180  0.02522000  1
  C  C2577  1  0.26745820  0.73254180  0.97478000  1
  C  C2578  1  0.73254180  0.26745820  0.97478000  1
  C  C2579  1  0.26745820  0.26745820  0.02522000  1
  C  C2580  1  0.73254180  0.52522000  0.76745820  1
  C  C2581  1  0.26745820  0.47478000  0.76745820  1
  C  C2582  1  0.73254180  0.47478000  0.23254180  1
  C  C2583  1  0.26745820  0.52522000  0.23254180  1
  C  C2584  1  0.52522000  0.73254180  0.76745820  1
  C  C2585  1  0.47478000  0.73254180  0.23254180  1
  C  C2586  1  0.47478000  0.26745820  0.76745820  1
  C  C2587  1  0.52522000  0.26745820  0.23254180  1
  C  C2588  1  0.73254180  0.73254180  0.97478000  1
  C  C2589  1  0.73254180  0.26745820  0.02522000  1
  C  C2590  1  0.26745820  0.73254180  0.02522000  1
  C  C2591  1  0.26745820  0.26745820  0.97478000  1
