# generated using pymatgen
data_Cd6H84C60N24O
_symmetry_space_group_name_H-M   'P 1'
_cell_length_a   30.88717000
_cell_length_b   30.88717000
_cell_length_c   30.88717000
_cell_angle_alpha   90.00000000
_cell_angle_beta   90.00000000
_cell_angle_gamma   90.00000000
_symmetry_Int_Tables_number   1
_chemical_formula_structural   Cd6H84C60N24O
_chemical_formula_sum   'Cd48 H672 C480 N192 O8'
_cell_volume   29466.89362023
_cell_formula_units_Z   8
loop_
 _symmetry_equiv_pos_site_id
 _symmetry_equiv_pos_as_xyz
  1  'x, y, z'
loop_
 _atom_site_type_symbol
 _atom_site_label
 _atom_site_symmetry_multiplicity
 _atom_site_fract_x
 _atom_site_fract_y
 _atom_site_fract_z
 _atom_site_occupancy
  Cd  Cd0  1  0.25000000  0.39611200  0.10389200  1
  Cd  Cd1  1  0.75000000  0.60388800  0.10389200  1
  Cd  Cd2  1  0.75000000  0.39611200  0.89610800  1
  Cd  Cd3  1  0.25000000  0.60388800  0.89610800  1
  Cd  Cd4  1  0.10389200  0.25000000  0.39611200  1
  Cd  Cd5  1  0.10389200  0.75000000  0.60388800  1
  Cd  Cd6  1  0.89610800  0.75000000  0.39611200  1
  Cd  Cd7  1  0.89610800  0.25000000  0.60388800  1
  Cd  Cd8  1  0.39611200  0.10389200  0.25000000  1
  Cd  Cd9  1  0.60388800  0.10389200  0.75000000  1
  Cd  Cd10  1  0.39611200  0.89610800  0.75000000  1
  Cd  Cd11  1  0.60388800  0.89610800  0.25000000  1
  Cd  Cd12  1  0.39611200  0.25000000  0.89610800  1
  Cd  Cd13  1  0.60388800  0.75000000  0.89610800  1
  Cd  Cd14  1  0.39611200  0.75000000  0.10389200  1
  Cd  Cd15  1  0.60388800  0.25000000  0.10389200  1
  Cd  Cd16  1  0.25000000  0.10389200  0.60388800  1
  Cd  Cd17  1  0.75000000  0.10389200  0.39611200  1
  Cd  Cd18  1  0.75000000  0.89610800  0.60388800  1
  Cd  Cd19  1  0.25000000  0.89610800  0.39611200  1
  Cd  Cd20  1  0.10389200  0.39611200  0.75000000  1
  Cd  Cd21  1  0.10389200  0.60388800  0.25000000  1
  Cd  Cd22  1  0.89610800  0.39611200  0.25000000  1
  Cd  Cd23  1  0.89610800  0.60388800  0.75000000  1
  Cd  Cd24  1  0.75000000  0.60388800  0.89610800  1
  Cd  Cd25  1  0.25000000  0.39611200  0.89610800  1
  Cd  Cd26  1  0.25000000  0.60388800  0.10389200  1
  Cd  Cd27  1  0.75000000  0.39611200  0.10389200  1
  Cd  Cd28  1  0.89610800  0.75000000  0.60388800  1
  Cd  Cd29  1  0.89610800  0.25000000  0.39611200  1
  Cd  Cd30  1  0.10389200  0.25000000  0.60388800  1
  Cd  Cd31  1  0.10389200  0.75000000  0.39611200  1
  Cd  Cd32  1  0.60388800  0.89610800  0.75000000  1
  Cd  Cd33  1  0.39611200  0.89610800  0.25000000  1
  Cd  Cd34  1  0.60388800  0.10389200  0.25000000  1
  Cd  Cd35  1  0.39611200  0.10389200  0.75000000  1
  Cd  Cd36  1  0.60388800  0.75000000  0.10389200  1
  Cd  Cd37  1  0.39611200  0.25000000  0.10389200  1
  Cd  Cd38  1  0.60388800  0.25000000  0.89610800  1
  Cd  Cd39  1  0.39611200  0.75000000  0.89610800  1
  Cd  Cd40  1  0.75000000  0.89610800  0.39611200  1
  Cd  Cd41  1  0.25000000  0.89610800  0.60388800  1
  Cd  Cd42  1  0.25000000  0.10389200  0.39611200  1
  Cd  Cd43  1  0.75000000  0.10389200  0.60388800  1
  Cd  Cd44  1  0.89610800  0.60388800  0.25000000  1
  Cd  Cd45  1  0.89610800  0.39611200  0.75000000  1
  Cd  Cd46  1  0.10389200  0.60388800  0.75000000  1
  Cd  Cd47  1  0.10389200  0.39611200  0.25000000  1
  N  N48  1  0.22993000  0.38623000  0.03553000  1
  N  N49  1  0.77007000  0.61377000  0.03553000  1
  N  N50  1  0.77007000  0.38623000  0.96447000  1
  N  N51  1  0.22993000  0.61377000  0.96447000  1
  N  N52  1  0.03553000  0.22993000  0.38623000  1
  N  N53  1  0.03553000  0.77007000  0.61377000  1
  N  N54  1  0.96447000  0.77007000  0.38623000  1
  N  N55  1  0.96447000  0.22993000  0.61377000  1
  N  N56  1  0.38623000  0.03553000  0.22993000  1
  N  N57  1  0.61377000  0.03553000  0.77007000  1
  N  N58  1  0.38623000  0.96447000  0.77007000  1
  N  N59  1  0.61377000  0.96447000  0.22993000  1
  N  N60  1  0.38623000  0.22993000  0.96447000  1
  N  N61  1  0.61377000  0.77007000  0.96447000  1
  N  N62  1  0.38623000  0.77007000  0.03553000  1
  N  N63  1  0.61377000  0.22993000  0.03553000  1
  N  N64  1  0.22993000  0.03553000  0.61377000  1
  N  N65  1  0.77007000  0.03553000  0.38623000  1
  N  N66  1  0.77007000  0.96447000  0.61377000  1
  N  N67  1  0.22993000  0.96447000  0.38623000  1
  N  N68  1  0.03553000  0.38623000  0.77007000  1
  N  N69  1  0.03553000  0.61377000  0.22993000  1
  N  N70  1  0.96447000  0.38623000  0.22993000  1
  N  N71  1  0.96447000  0.61377000  0.77007000  1
  N  N72  1  0.72993000  0.88623000  0.53553000  1
  N  N73  1  0.27007000  0.11377000  0.53553000  1
  N  N74  1  0.27007000  0.88623000  0.46447000  1
  N  N75  1  0.72993000  0.11377000  0.46447000  1
  N  N76  1  0.53553000  0.72993000  0.88623000  1
  N  N77  1  0.53553000  0.27007000  0.11377000  1
  N  N78  1  0.46447000  0.27007000  0.88623000  1
  N  N79  1  0.46447000  0.72993000  0.11377000  1
  N  N80  1  0.88623000  0.53553000  0.72993000  1
  N  N81  1  0.11377000  0.53553000  0.27007000  1
  N  N82  1  0.88623000  0.46447000  0.27007000  1
  N  N83  1  0.11377000  0.46447000  0.72993000  1
  N  N84  1  0.88623000  0.72993000  0.46447000  1
  N  N85  1  0.11377000  0.27007000  0.46447000  1
  N  N86  1  0.88623000  0.27007000  0.53553000  1
  N  N87  1  0.11377000  0.72993000  0.53553000  1
  N  N88  1  0.72993000  0.53553000  0.11377000  1
  N  N89  1  0.27007000  0.53553000  0.88623000  1
  N  N90  1  0.27007000  0.46447000  0.11377000  1
  N  N91  1  0.72993000  0.46447000  0.88623000  1
  N  N92  1  0.53553000  0.88623000  0.27007000  1
  N  N93  1  0.53553000  0.11377000  0.72993000  1
  N  N94  1  0.46447000  0.88623000  0.72993000  1
  N  N95  1  0.46447000  0.11377000  0.27007000  1
  N  N96  1  0.77007000  0.61377000  0.96447000  1
  N  N97  1  0.22993000  0.38623000  0.96447000  1
  N  N98  1  0.22993000  0.61377000  0.03553000  1
  N  N99  1  0.77007000  0.38623000  0.03553000  1
  N  N100  1  0.96447000  0.77007000  0.61377000  1
  N  N101  1  0.96447000  0.22993000  0.38623000  1
  N  N102  1  0.03553000  0.22993000  0.61377000  1
  N  N103  1  0.03553000  0.77007000  0.38623000  1
  N  N104  1  0.61377000  0.96447000  0.77007000  1
  N  N105  1  0.38623000  0.96447000  0.22993000  1
  N  N106  1  0.61377000  0.03553000  0.22993000  1
  N  N107  1  0.38623000  0.03553000  0.77007000  1
  N  N108  1  0.61377000  0.77007000  0.03553000  1
  N  N109  1  0.38623000  0.22993000  0.03553000  1
  N  N110  1  0.61377000  0.22993000  0.96447000  1
  N  N111  1  0.38623000  0.77007000  0.96447000  1
  N  N112  1  0.77007000  0.96447000  0.38623000  1
  N  N113  1  0.22993000  0.96447000  0.61377000  1
  N  N114  1  0.22993000  0.03553000  0.38623000  1
  N  N115  1  0.77007000  0.03553000  0.61377000  1
  N  N116  1  0.96447000  0.61377000  0.22993000  1
  N  N117  1  0.96447000  0.38623000  0.77007000  1
  N  N118  1  0.03553000  0.61377000  0.77007000  1
  N  N119  1  0.03553000  0.38623000  0.22993000  1
  N  N120  1  0.27007000  0.11377000  0.46447000  1
  N  N121  1  0.72993000  0.88623000  0.46447000  1
  N  N122  1  0.72993000  0.11377000  0.53553000  1
  N  N123  1  0.27007000  0.88623000  0.53553000  1
  N  N124  1  0.46447000  0.27007000  0.11377000  1
  N  N125  1  0.46447000  0.72993000  0.88623000  1
  N  N126  1  0.53553000  0.72993000  0.11377000  1
  N  N127  1  0.53553000  0.27007000  0.88623000  1
  N  N128  1  0.11377000  0.46447000  0.27007000  1
  N  N129  1  0.88623000  0.46447000  0.72993000  1
  N  N130  1  0.11377000  0.53553000  0.72993000  1
  N  N131  1  0.88623000  0.53553000  0.27007000  1
  N  N132  1  0.11377000  0.27007000  0.53553000  1
  N  N133  1  0.88623000  0.72993000  0.53553000  1
  N  N134  1  0.11377000  0.72993000  0.46447000  1
  N  N135  1  0.88623000  0.27007000  0.46447000  1
  N  N136  1  0.27007000  0.46447000  0.88623000  1
  N  N137  1  0.72993000  0.46447000  0.11377000  1
  N  N138  1  0.72993000  0.53553000  0.88623000  1
  N  N139  1  0.27007000  0.53553000  0.11377000  1
  N  N140  1  0.46447000  0.11377000  0.72993000  1
  N  N141  1  0.46447000  0.88623000  0.27007000  1
  N  N142  1  0.53553000  0.11377000  0.27007000  1
  N  N143  1  0.53553000  0.88623000  0.72993000  1
  C  C144  1  0.18043000  0.38945000  0.18043000  1
  C  C145  1  0.81957000  0.61055000  0.18043000  1
  C  C146  1  0.81957000  0.38945000  0.81957000  1
  C  C147  1  0.18043000  0.61055000  0.81957000  1
  C  C148  1  0.18043000  0.18043000  0.38945000  1
  C  C149  1  0.18043000  0.81957000  0.61055000  1
  C  C150  1  0.81957000  0.81957000  0.38945000  1
  C  C151  1  0.81957000  0.18043000  0.61055000  1
  C  C152  1  0.38945000  0.18043000  0.18043000  1
  C  C153  1  0.61055000  0.18043000  0.81957000  1
  C  C154  1  0.38945000  0.81957000  0.81957000  1
  C  C155  1  0.61055000  0.81957000  0.18043000  1
  C  C156  1  0.38945000  0.18043000  0.81957000  1
  C  C157  1  0.61055000  0.81957000  0.81957000  1
  C  C158  1  0.38945000  0.81957000  0.18043000  1
  C  C159  1  0.61055000  0.18043000  0.18043000  1
  C  C160  1  0.18043000  0.18043000  0.61055000  1
  C  C161  1  0.81957000  0.18043000  0.38945000  1
  C  C162  1  0.81957000  0.81957000  0.61055000  1
  C  C163  1  0.18043000  0.81957000  0.38945000  1
  C  C164  1  0.18043000  0.38945000  0.81957000  1
  C  C165  1  0.18043000  0.61055000  0.18043000  1
  C  C166  1  0.81957000  0.38945000  0.18043000  1
  C  C167  1  0.81957000  0.61055000  0.81957000  1
  C  C168  1  0.68043000  0.88945000  0.68043000  1
  C  C169  1  0.31957000  0.11055000  0.68043000  1
  C  C170  1  0.31957000  0.88945000  0.31957000  1
  C  C171  1  0.68043000  0.11055000  0.31957000  1
  C  C172  1  0.68043000  0.68043000  0.88945000  1
  C  C173  1  0.68043000  0.31957000  0.11055000  1
  C  C174  1  0.31957000  0.31957000  0.88945000  1
  C  C175  1  0.31957000  0.68043000  0.11055000  1
  C  C176  1  0.88945000  0.68043000  0.68043000  1
  C  C177  1  0.11055000  0.68043000  0.31957000  1
  C  C178  1  0.88945000  0.31957000  0.31957000  1
  C  C179  1  0.11055000  0.31957000  0.68043000  1
  C  C180  1  0.88945000  0.68043000  0.31957000  1
  C  C181  1  0.11055000  0.31957000  0.31957000  1
  C  C182  1  0.88945000  0.31957000  0.68043000  1
  C  C183  1  0.11055000  0.68043000  0.68043000  1
  C  C184  1  0.68043000  0.68043000  0.11055000  1
  C  C185  1  0.31957000  0.68043000  0.88945000  1
  C  C186  1  0.31957000  0.31957000  0.11055000  1
  C  C187  1  0.68043000  0.31957000  0.88945000  1
  C  C188  1  0.68043000  0.88945000  0.31957000  1
  C  C189  1  0.68043000  0.11055000  0.68043000  1
  C  C190  1  0.31957000  0.88945000  0.68043000  1
  C  C191  1  0.31957000  0.11055000  0.31957000  1
  C  C192  1  0.25140000  0.39514000  0.00005000  1
  C  C193  1  0.74860000  0.60486000  0.00005000  1
  C  C194  1  0.74860000  0.39514000  0.00000000  1
  C  C195  1  0.25140000  0.60486000  0.00000000  1
  C  C196  1  0.00005000  0.25140000  0.39514000  1
  C  C197  1  0.00005000  0.74860000  0.60486000  1
  C  C198  1  0.00000000  0.74860000  0.39514000  1
  C  C199  1  0.00000000  0.25140000  0.60486000  1
  C  C200  1  0.39514000  0.00005000  0.25140000  1
  C  C201  1  0.60486000  0.00005000  0.74860000  1
  C  C202  1  0.39514000  0.00000000  0.74860000  1
  C  C203  1  0.60486000  0.00000000  0.25140000  1
  C  C204  1  0.39514000  0.25140000  0.00000000  1
  C  C205  1  0.60486000  0.74860000  0.00000000  1
  C  C206  1  0.39514000  0.74860000  0.00005000  1
  C  C207  1  0.60486000  0.25140000  0.00005000  1
  C  C208  1  0.25140000  0.00005000  0.60486000  1
  C  C209  1  0.74860000  0.00005000  0.39514000  1
  C  C210  1  0.74860000  0.00000000  0.60486000  1
  C  C211  1  0.25140000  0.00000000  0.39514000  1
  C  C212  1  0.00005000  0.39514000  0.74860000  1
  C  C213  1  0.00005000  0.60486000  0.25140000  1
  C  C214  1  0.00000000  0.39514000  0.25140000  1
  C  C215  1  0.00000000  0.60486000  0.74860000  1
  C  C216  1  0.75140000  0.89514000  0.50005000  1
  C  C217  1  0.24860000  0.10486000  0.50005000  1
  C  C218  1  0.24860000  0.89514000  0.49995000  1
  C  C219  1  0.75140000  0.10486000  0.49995000  1
  C  C220  1  0.50005000  0.75140000  0.89514000  1
  C  C221  1  0.50005000  0.24860000  0.10486000  1
  C  C222  1  0.49995000  0.24860000  0.89514000  1
  C  C223  1  0.49995000  0.75140000  0.10486000  1
  C  C224  1  0.89514000  0.50005000  0.75140000  1
  C  C225  1  0.10486000  0.50005000  0.24860000  1
  C  C226  1  0.89514000  0.49995000  0.24860000  1
  C  C227  1  0.10486000  0.49995000  0.75140000  1
  C  C228  1  0.89514000  0.75140000  0.49995000  1
  C  C229  1  0.10486000  0.24860000  0.49995000  1
  C  C230  1  0.89514000  0.24860000  0.50005000  1
  C  C231  1  0.10486000  0.75140000  0.50005000  1
  C  C232  1  0.75140000  0.50005000  0.10486000  1
  C  C233  1  0.24860000  0.50005000  0.89514000  1
  C  C234  1  0.24860000  0.49995000  0.10486000  1
  C  C235  1  0.75140000  0.49995000  0.89514000  1
  C  C236  1  0.50005000  0.89514000  0.24860000  1
  C  C237  1  0.50005000  0.10486000  0.75140000  1
  C  C238  1  0.49995000  0.89514000  0.75140000  1
  C  C239  1  0.49995000  0.10486000  0.24860000  1
  N  N240  1  0.19133000  0.38053000  0.14073000  1
  N  N241  1  0.80867000  0.61947000  0.14073000  1
  N  N242  1  0.80867000  0.38053000  0.85927000  1
  N  N243  1  0.19133000  0.61947000  0.85927000  1
  N  N244  1  0.14073000  0.19133000  0.38053000  1
  N  N245  1  0.14073000  0.80867000  0.61947000  1
  N  N246  1  0.85927000  0.80867000  0.38053000  1
  N  N247  1  0.85927000  0.19133000  0.61947000  1
  N  N248  1  0.38053000  0.14073000  0.19133000  1
  N  N249  1  0.61947000  0.14073000  0.80867000  1
  N  N250  1  0.38053000  0.85927000  0.80867000  1
  N  N251  1  0.61947000  0.85927000  0.19133000  1
  N  N252  1  0.38053000  0.19133000  0.85927000  1
  N  N253  1  0.61947000  0.80867000  0.85927000  1
  N  N254  1  0.38053000  0.80867000  0.14073000  1
  N  N255  1  0.61947000  0.19133000  0.14073000  1
  N  N256  1  0.19133000  0.14073000  0.61947000  1
  N  N257  1  0.80867000  0.14073000  0.38053000  1
  N  N258  1  0.80867000  0.85927000  0.61947000  1
  N  N259  1  0.19133000  0.85927000  0.38053000  1
  N  N260  1  0.14073000  0.38053000  0.80867000  1
  N  N261  1  0.14073000  0.61947000  0.19133000  1
  N  N262  1  0.85927000  0.38053000  0.19133000  1
  N  N263  1  0.85927000  0.61947000  0.80867000  1
  N  N264  1  0.69133000  0.88053000  0.64073000  1
  N  N265  1  0.30867000  0.11947000  0.64073000  1
  N  N266  1  0.30867000  0.88053000  0.35927000  1
  N  N267  1  0.69133000  0.11947000  0.35927000  1
  N  N268  1  0.64073000  0.69133000  0.88053000  1
  N  N269  1  0.64073000  0.30867000  0.11947000  1
  N  N270  1  0.35927000  0.30867000  0.88053000  1
  N  N271  1  0.35927000  0.69133000  0.11947000  1
  N  N272  1  0.88053000  0.64073000  0.69133000  1
  N  N273  1  0.11947000  0.64073000  0.30867000  1
  N  N274  1  0.88053000  0.35927000  0.30867000  1
  N  N275  1  0.11947000  0.35927000  0.69133000  1
  N  N276  1  0.88053000  0.69133000  0.35927000  1
  N  N277  1  0.11947000  0.30867000  0.35927000  1
  N  N278  1  0.88053000  0.30867000  0.64073000  1
  N  N279  1  0.11947000  0.69133000  0.64073000  1
  N  N280  1  0.69133000  0.64073000  0.11947000  1
  N  N281  1  0.30867000  0.64073000  0.88053000  1
  N  N282  1  0.30867000  0.35927000  0.11947000  1
  N  N283  1  0.69133000  0.35927000  0.88053000  1
  N  N284  1  0.64073000  0.88053000  0.30867000  1
  N  N285  1  0.64073000  0.11947000  0.69133000  1
  N  N286  1  0.35927000  0.88053000  0.69133000  1
  N  N287  1  0.35927000  0.11947000  0.30867000  1
  N  N288  1  0.80867000  0.61947000  0.85927000  1
  N  N289  1  0.19133000  0.38053000  0.85927000  1
  N  N290  1  0.19133000  0.61947000  0.14073000  1
  N  N291  1  0.80867000  0.38053000  0.14073000  1
  N  N292  1  0.85927000  0.80867000  0.61947000  1
  N  N293  1  0.85927000  0.19133000  0.38053000  1
  N  N294  1  0.14073000  0.19133000  0.61947000  1
  N  N295  1  0.14073000  0.80867000  0.38053000  1
  N  N296  1  0.61947000  0.85927000  0.80867000  1
  N  N297  1  0.38053000  0.85927000  0.19133000  1
  N  N298  1  0.61947000  0.14073000  0.19133000  1
  N  N299  1  0.38053000  0.14073000  0.80867000  1
  N  N300  1  0.61947000  0.80867000  0.14073000  1
  N  N301  1  0.38053000  0.19133000  0.14073000  1
  N  N302  1  0.61947000  0.19133000  0.85927000  1
  N  N303  1  0.38053000  0.80867000  0.85927000  1
  N  N304  1  0.80867000  0.85927000  0.38053000  1
  N  N305  1  0.19133000  0.85927000  0.61947000  1
  N  N306  1  0.19133000  0.14073000  0.38053000  1
  N  N307  1  0.80867000  0.14073000  0.61947000  1
  N  N308  1  0.85927000  0.61947000  0.19133000  1
  N  N309  1  0.85927000  0.38053000  0.80867000  1
  N  N310  1  0.14073000  0.61947000  0.80867000  1
  N  N311  1  0.14073000  0.38053000  0.19133000  1
  N  N312  1  0.30867000  0.11947000  0.35927000  1
  N  N313  1  0.69133000  0.88053000  0.35927000  1
  N  N314  1  0.69133000  0.11947000  0.64073000  1
  N  N315  1  0.30867000  0.88053000  0.64073000  1
  N  N316  1  0.35927000  0.30867000  0.11947000  1
  N  N317  1  0.35927000  0.69133000  0.88053000  1
  N  N318  1  0.64073000  0.69133000  0.11947000  1
  N  N319  1  0.64073000  0.30867000  0.88053000  1
  N  N320  1  0.11947000  0.35927000  0.30867000  1
  N  N321  1  0.88053000  0.35927000  0.69133000  1
  N  N322  1  0.11947000  0.64073000  0.69133000  1
  N  N323  1  0.88053000  0.64073000  0.30867000  1
  N  N324  1  0.11947000  0.30867000  0.64073000  1
  N  N325  1  0.88053000  0.69133000  0.64073000  1
  N  N326  1  0.11947000  0.69133000  0.35927000  1
  N  N327  1  0.88053000  0.30867000  0.35927000  1
  N  N328  1  0.30867000  0.35927000  0.88053000  1
  N  N329  1  0.69133000  0.35927000  0.11947000  1
  N  N330  1  0.69133000  0.64073000  0.88053000  1
  N  N331  1  0.30867000  0.64073000  0.11947000  1
  N  N332  1  0.35927000  0.11947000  0.69133000  1
  N  N333  1  0.35927000  0.88053000  0.30867000  1
  N  N334  1  0.64073000  0.11947000  0.30867000  1
  N  N335  1  0.64073000  0.88053000  0.69133000  1
  C  C336  1  0.19424000  0.36775000  0.02241000  1
  C  C337  1  0.80576000  0.63225000  0.02241000  1
  C  C338  1  0.80576000  0.36775000  0.97759000  1
  C  C339  1  0.19424000  0.63225000  0.97759000  1
  C  C340  1  0.02241000  0.19424000  0.36775000  1
  C  C341  1  0.02241000  0.80576000  0.63225000  1
  C  C342  1  0.97759000  0.80576000  0.36775000  1
  C  C343  1  0.97759000  0.19424000  0.63225000  1
  C  C344  1  0.36775000  0.02241000  0.19424000  1
  C  C345  1  0.63225000  0.02241000  0.80576000  1
  C  C346  1  0.36775000  0.97759000  0.80576000  1
  C  C347  1  0.63225000  0.97759000  0.19424000  1
  C  C348  1  0.36775000  0.19424000  0.97759000  1
  C  C349  1  0.63225000  0.80576000  0.97759000  1
  C  C350  1  0.36775000  0.80576000  0.02241000  1
  C  C351  1  0.63225000  0.19424000  0.02241000  1
  C  C352  1  0.19424000  0.02241000  0.63225000  1
  C  C353  1  0.80576000  0.02241000  0.36775000  1
  C  C354  1  0.80576000  0.97759000  0.63225000  1
  C  C355  1  0.19424000  0.97759000  0.36775000  1
  C  C356  1  0.02241000  0.36775000  0.80576000  1
  C  C357  1  0.02241000  0.63225000  0.19424000  1
  C  C358  1  0.97759000  0.36775000  0.19424000  1
  C  C359  1  0.97759000  0.63225000  0.80576000  1
  C  C360  1  0.69424000  0.86775000  0.52241000  1
  C  C361  1  0.30576000  0.13225000  0.52241000  1
  C  C362  1  0.30576000  0.86775000  0.47759000  1
  C  C363  1  0.69424000  0.13225000  0.47759000  1
  C  C364  1  0.52241000  0.69424000  0.86775000  1
  C  C365  1  0.52241000  0.30576000  0.13225000  1
  C  C366  1  0.47759000  0.30576000  0.86775000  1
  C  C367  1  0.47759000  0.69424000  0.13225000  1
  C  C368  1  0.86775000  0.52241000  0.69424000  1
  C  C369  1  0.13225000  0.52241000  0.30576000  1
  C  C370  1  0.86775000  0.47759000  0.30576000  1
  C  C371  1  0.13225000  0.47759000  0.69424000  1
  C  C372  1  0.86775000  0.69424000  0.47759000  1
  C  C373  1  0.13225000  0.30576000  0.47759000  1
  C  C374  1  0.86775000  0.30576000  0.52241000  1
  C  C375  1  0.13225000  0.69424000  0.52241000  1
  C  C376  1  0.69424000  0.52241000  0.13225000  1
  C  C377  1  0.30576000  0.52241000  0.86775000  1
  C  C378  1  0.30576000  0.47759000  0.13225000  1
  C  C379  1  0.69424000  0.47759000  0.86775000  1
  C  C380  1  0.52241000  0.86775000  0.30576000  1
  C  C381  1  0.52241000  0.13225000  0.69424000  1
  C  C382  1  0.47759000  0.86775000  0.69424000  1
  C  C383  1  0.47759000  0.13225000  0.30576000  1
  C  C384  1  0.80576000  0.63225000  0.97759000  1
  C  C385  1  0.19424000  0.36775000  0.97759000  1
  C  C386  1  0.19424000  0.63225000  0.02241000  1
  C  C387  1  0.80576000  0.36775000  0.02241000  1
  C  C388  1  0.97759000  0.80576000  0.63225000  1
  C  C389  1  0.97759000  0.19424000  0.36775000  1
  C  C390  1  0.02241000  0.19424000  0.63225000  1
  C  C391  1  0.02241000  0.80576000  0.36775000  1
  C  C392  1  0.63225000  0.97759000  0.80576000  1
  C  C393  1  0.36775000  0.97759000  0.19424000  1
  C  C394  1  0.63225000  0.02241000  0.19424000  1
  C  C395  1  0.36775000  0.02241000  0.80576000  1
  C  C396  1  0.63225000  0.80576000  0.02241000  1
  C  C397  1  0.36775000  0.19424000  0.02241000  1
  C  C398  1  0.63225000  0.19424000  0.97759000  1
  C  C399  1  0.36775000  0.80576000  0.97759000  1
  C  C400  1  0.80576000  0.97759000  0.36775000  1
  C  C401  1  0.19424000  0.97759000  0.63225000  1
  C  C402  1  0.19424000  0.02241000  0.36775000  1
  C  C403  1  0.80576000  0.02241000  0.63225000  1
  C  C404  1  0.97759000  0.63225000  0.19424000  1
  C  C405  1  0.97759000  0.36775000  0.80576000  1
  C  C406  1  0.02241000  0.63225000  0.80576000  1
  C  C407  1  0.02241000  0.36775000  0.19424000  1
  C  C408  1  0.30576000  0.13225000  0.47759000  1
  C  C409  1  0.69424000  0.86775000  0.47759000  1
  C  C410  1  0.69424000  0.13225000  0.52241000  1
  C  C411  1  0.30576000  0.86775000  0.52241000  1
  C  C412  1  0.47759000  0.30576000  0.13225000  1
  C  C413  1  0.47759000  0.69424000  0.86775000  1
  C  C414  1  0.52241000  0.69424000  0.13225000  1
  C  C415  1  0.52241000  0.30576000  0.86775000  1
  C  C416  1  0.13225000  0.47759000  0.30576000  1
  C  C417  1  0.86775000  0.47759000  0.69424000  1
  C  C418  1  0.13225000  0.52241000  0.69424000  1
  C  C419  1  0.86775000  0.52241000  0.30576000  1
  C  C420  1  0.13225000  0.30576000  0.52241000  1
  C  C421  1  0.86775000  0.69424000  0.52241000  1
  C  C422  1  0.13225000  0.69424000  0.47759000  1
  C  C423  1  0.86775000  0.30576000  0.47759000  1
  C  C424  1  0.30576000  0.47759000  0.86775000  1
  C  C425  1  0.69424000  0.47759000  0.13225000  1
  C  C426  1  0.69424000  0.52241000  0.86775000  1
  C  C427  1  0.30576000  0.52241000  0.13225000  1
  C  C428  1  0.47759000  0.13225000  0.69424000  1
  C  C429  1  0.47759000  0.86775000  0.30576000  1
  C  C430  1  0.52241000  0.13225000  0.30576000  1
  C  C431  1  0.52241000  0.86775000  0.69424000  1
  H  H432  1  0.17260000  0.35650000  0.04010000  1
  H  H433  1  0.82740000  0.64350000  0.04010000  1
  H  H434  1  0.82740000  0.35650000  0.95990000  1
  H  H435  1  0.17260000  0.64350000  0.95990000  1
  H  H436  1  0.04010000  0.17260000  0.35650000  1
  H  H437  1  0.04010000  0.82740000  0.64350000  1
  H  H438  1  0.95990000  0.82740000  0.35650000  1
  H  H439  1  0.95990000  0.17260000  0.64350000  1
  H  H440  1  0.35650000  0.04010000  0.17260000  1
  H  H441  1  0.64350000  0.04010000  0.82740000  1
  H  H442  1  0.35650000  0.95990000  0.82740000  1
  H  H443  1  0.64350000  0.95990000  0.17260000  1
  H  H444  1  0.35650000  0.17260000  0.95990000  1
  H  H445  1  0.64350000  0.82740000  0.95990000  1
  H  H446  1  0.35650000  0.82740000  0.04010000  1
  H  H447  1  0.64350000  0.17260000  0.04010000  1
  H  H448  1  0.17260000  0.04010000  0.64350000  1
  H  H449  1  0.82740000  0.04010000  0.35650000  1
  H  H450  1  0.82740000  0.95990000  0.64350000  1
  H  H451  1  0.17260000  0.95990000  0.35650000  1
  H  H452  1  0.04010000  0.35650000  0.82740000  1
  H  H453  1  0.04010000  0.64350000  0.17260000  1
  H  H454  1  0.95990000  0.35650000  0.17260000  1
  H  H455  1  0.95990000  0.64350000  0.82740000  1
  H  H456  1  0.67260000  0.85650000  0.54010000  1
  H  H457  1  0.32740000  0.14350000  0.54010000  1
  H  H458  1  0.32740000  0.85650000  0.45990000  1
  H  H459  1  0.67260000  0.14350000  0.45990000  1
  H  H460  1  0.54010000  0.67260000  0.85650000  1
  H  H461  1  0.54010000  0.32740000  0.14350000  1
  H  H462  1  0.45990000  0.32740000  0.85650000  1
  H  H463  1  0.45990000  0.67260000  0.14350000  1
  H  H464  1  0.85650000  0.54010000  0.67260000  1
  H  H465  1  0.14350000  0.54010000  0.32740000  1
  H  H466  1  0.85650000  0.45990000  0.32740000  1
  H  H467  1  0.14350000  0.45990000  0.67260000  1
  H  H468  1  0.85650000  0.67260000  0.45990000  1
  H  H469  1  0.14350000  0.32740000  0.45990000  1
  H  H470  1  0.85650000  0.32740000  0.54010000  1
  H  H471  1  0.14350000  0.67260000  0.54010000  1
  H  H472  1  0.67260000  0.54010000  0.14350000  1
  H  H473  1  0.32740000  0.54010000  0.85650000  1
  H  H474  1  0.32740000  0.45990000  0.14350000  1
  H  H475  1  0.67260000  0.45990000  0.85650000  1
  H  H476  1  0.54010000  0.85650000  0.32740000  1
  H  H477  1  0.54010000  0.14350000  0.67260000  1
  H  H478  1  0.45990000  0.85650000  0.67260000  1
  H  H479  1  0.45990000  0.14350000  0.32740000  1
  H  H480  1  0.82740000  0.64350000  0.95990000  1
  H  H481  1  0.17260000  0.35650000  0.95990000  1
  H  H482  1  0.17260000  0.64350000  0.04010000  1
  H  H483  1  0.82740000  0.35650000  0.04010000  1
  H  H484  1  0.95990000  0.82740000  0.64350000  1
  H  H485  1  0.95990000  0.17260000  0.35650000  1
  H  H486  1  0.04010000  0.17260000  0.64350000  1
  H  H487  1  0.04010000  0.82740000  0.35650000  1
  H  H488  1  0.64350000  0.95990000  0.82740000  1
  H  H489  1  0.35650000  0.95990000  0.17260000  1
  H  H490  1  0.64350000  0.04010000  0.17260000  1
  H  H491  1  0.35650000  0.04010000  0.82740000  1
  H  H492  1  0.64350000  0.82740000  0.04010000  1
  H  H493  1  0.35650000  0.17260000  0.04010000  1
  H  H494  1  0.64350000  0.17260000  0.95990000  1
  H  H495  1  0.35650000  0.82740000  0.95990000  1
  H  H496  1  0.82740000  0.95990000  0.35650000  1
  H  H497  1  0.17260000  0.95990000  0.64350000  1
  H  H498  1  0.17260000  0.04010000  0.35650000  1
  H  H499  1  0.82740000  0.04010000  0.64350000  1
  H  H500  1  0.95990000  0.64350000  0.17260000  1
  H  H501  1  0.95990000  0.35650000  0.82740000  1
  H  H502  1  0.04010000  0.64350000  0.82740000  1
  H  H503  1  0.04010000  0.35650000  0.17260000  1
  H  H504  1  0.32740000  0.14350000  0.45990000  1
  H  H505  1  0.67260000  0.85650000  0.45990000  1
  H  H506  1  0.67260000  0.14350000  0.54010000  1
  H  H507  1  0.32740000  0.85650000  0.54010000  1
  H  H508  1  0.45990000  0.32740000  0.14350000  1
  H  H509  1  0.45990000  0.67260000  0.85650000  1
  H  H510  1  0.54010000  0.67260000  0.14350000  1
  H  H511  1  0.54010000  0.32740000  0.85650000  1
  H  H512  1  0.14350000  0.45990000  0.32740000  1
  H  H513  1  0.85650000  0.45990000  0.67260000  1
  H  H514  1  0.14350000  0.54010000  0.67260000  1
  H  H515  1  0.85650000  0.54010000  0.32740000  1
  H  H516  1  0.14350000  0.32740000  0.54010000  1
  H  H517  1  0.85650000  0.67260000  0.54010000  1
  H  H518  1  0.14350000  0.67260000  0.45990000  1
  H  H519  1  0.85650000  0.32740000  0.45990000  1
  H  H520  1  0.32740000  0.45990000  0.85650000  1
  H  H521  1  0.67260000  0.45990000  0.14350000  1
  H  H522  1  0.67260000  0.54010000  0.85650000  1
  H  H523  1  0.32740000  0.54010000  0.14350000  1
  H  H524  1  0.45990000  0.14350000  0.67260000  1
  H  H525  1  0.45990000  0.85650000  0.32740000  1
  H  H526  1  0.54010000  0.14350000  0.32740000  1
  H  H527  1  0.54010000  0.85650000  0.67260000  1
  C  C528  1  0.30100000  0.38845000  0.00009000  1
  C  C529  1  0.69900000  0.61155000  0.00009000  1
  C  C530  1  0.69900000  0.38845000  0.00000000  1
  C  C531  1  0.30100000  0.61155000  0.00000000  1
  C  C532  1  0.00009000  0.30100000  0.38845000  1
  C  C533  1  0.00009000  0.69900000  0.61155000  1
  C  C534  1  0.00000000  0.69900000  0.38845000  1
  C  C535  1  0.00000000  0.30100000  0.61155000  1
  C  C536  1  0.38845000  0.00009000  0.30100000  1
  C  C537  1  0.61155000  0.00009000  0.69900000  1
  C  C538  1  0.38845000  0.00000000  0.69900000  1
  C  C539  1  0.61155000  0.00000000  0.30100000  1
  C  C540  1  0.38845000  0.30100000  0.00000000  1
  C  C541  1  0.61155000  0.69900000  0.00000000  1
  C  C542  1  0.38845000  0.69900000  0.00009000  1
  C  C543  1  0.61155000  0.30100000  0.00009000  1
  C  C544  1  0.30100000  0.00009000  0.61155000  1
  C  C545  1  0.69900000  0.00009000  0.38845000  1
  C  C546  1  0.69900000  0.00000000  0.61155000  1
  C  C547  1  0.30100000  0.00000000  0.38845000  1
  C  C548  1  0.00009000  0.38845000  0.69900000  1
  C  C549  1  0.00009000  0.61155000  0.30100000  1
  C  C550  1  0.00000000  0.38845000  0.30100000  1
  C  C551  1  0.00000000  0.61155000  0.69900000  1
  C  C552  1  0.80100000  0.88845000  0.50009000  1
  C  C553  1  0.19900000  0.11155000  0.50009000  1
  C  C554  1  0.19900000  0.88845000  0.49991000  1
  C  C555  1  0.80100000  0.11155000  0.49991000  1
  C  C556  1  0.50009000  0.80100000  0.88845000  1
  C  C557  1  0.50009000  0.19900000  0.11155000  1
  C  C558  1  0.49991000  0.19900000  0.88845000  1
  C  C559  1  0.49991000  0.80100000  0.11155000  1
  C  C560  1  0.88845000  0.50009000  0.80100000  1
  C  C561  1  0.11155000  0.50009000  0.19900000  1
  C  C562  1  0.88845000  0.49991000  0.19900000  1
  C  C563  1  0.11155000  0.49991000  0.80100000  1
  C  C564  1  0.88845000  0.80100000  0.49991000  1
  C  C565  1  0.11155000  0.19900000  0.49991000  1
  C  C566  1  0.88845000  0.19900000  0.50009000  1
  C  C567  1  0.11155000  0.80100000  0.50009000  1
  C  C568  1  0.80100000  0.50009000  0.11155000  1
  C  C569  1  0.19900000  0.50009000  0.88845000  1
  C  C570  1  0.19900000  0.49991000  0.11155000  1
  C  C571  1  0.80100000  0.49991000  0.88845000  1
  C  C572  1  0.50009000  0.88845000  0.19900000  1
  C  C573  1  0.50009000  0.11155000  0.80100000  1
  C  C574  1  0.49991000  0.88845000  0.80100000  1
  C  C575  1  0.49991000  0.11155000  0.19900000  1
  H  H576  1  0.31030000  0.37270000  0.02560000  1
  H  H577  1  0.68970000  0.62730000  0.02560000  1
  H  H578  1  0.68970000  0.37270000  0.97440000  1
  H  H579  1  0.31030000  0.62730000  0.97440000  1
  H  H580  1  0.02560000  0.31030000  0.37270000  1
  H  H581  1  0.02560000  0.68970000  0.62730000  1
  H  H582  1  0.97440000  0.68970000  0.37270000  1
  H  H583  1  0.97440000  0.31030000  0.62730000  1
  H  H584  1  0.37270000  0.02560000  0.31030000  1
  H  H585  1  0.62730000  0.02560000  0.68970000  1
  H  H586  1  0.37270000  0.97440000  0.68970000  1
  H  H587  1  0.62730000  0.97440000  0.31030000  1
  H  H588  1  0.37270000  0.31030000  0.97440000  1
  H  H589  1  0.62730000  0.68970000  0.97440000  1
  H  H590  1  0.37270000  0.68970000  0.02560000  1
  H  H591  1  0.62730000  0.31030000  0.02560000  1
  H  H592  1  0.31030000  0.02560000  0.62730000  1
  H  H593  1  0.68970000  0.02560000  0.37270000  1
  H  H594  1  0.68970000  0.97440000  0.62730000  1
  H  H595  1  0.31030000  0.97440000  0.37270000  1
  H  H596  1  0.02560000  0.37270000  0.68970000  1
  H  H597  1  0.02560000  0.62730000  0.31030000  1
  H  H598  1  0.97440000  0.37270000  0.31030000  1
  H  H599  1  0.97440000  0.62730000  0.68970000  1
  H  H600  1  0.81030000  0.87270000  0.52560000  1
  H  H601  1  0.18970000  0.12730000  0.52560000  1
  H  H602  1  0.18970000  0.87270000  0.47440000  1
  H  H603  1  0.81030000  0.12730000  0.47440000  1
  H  H604  1  0.52560000  0.81030000  0.87270000  1
  H  H605  1  0.52560000  0.18970000  0.12730000  1
  H  H606  1  0.47440000  0.18970000  0.87270000  1
  H  H607  1  0.47440000  0.81030000  0.12730000  1
  H  H608  1  0.87270000  0.52560000  0.81030000  1
  H  H609  1  0.12730000  0.52560000  0.18970000  1
  H  H610  1  0.87270000  0.47440000  0.18970000  1
  H  H611  1  0.12730000  0.47440000  0.81030000  1
  H  H612  1  0.87270000  0.81030000  0.47440000  1
  H  H613  1  0.12730000  0.18970000  0.47440000  1
  H  H614  1  0.87270000  0.18970000  0.52560000  1
  H  H615  1  0.12730000  0.81030000  0.52560000  1
  H  H616  1  0.81030000  0.52560000  0.12730000  1
  H  H617  1  0.18970000  0.52560000  0.87270000  1
  H  H618  1  0.18970000  0.47440000  0.12730000  1
  H  H619  1  0.81030000  0.47440000  0.87270000  1
  H  H620  1  0.52560000  0.87270000  0.18970000  1
  H  H621  1  0.52560000  0.12730000  0.81030000  1
  H  H622  1  0.47440000  0.87270000  0.81030000  1
  H  H623  1  0.47440000  0.12730000  0.18970000  1
  H  H624  1  0.68970000  0.62730000  0.97440000  1
  H  H625  1  0.31030000  0.37270000  0.97440000  1
  H  H626  1  0.31030000  0.62730000  0.02560000  1
  H  H627  1  0.68970000  0.37270000  0.02560000  1
  H  H628  1  0.97440000  0.68970000  0.62730000  1
  H  H629  1  0.97440000  0.31030000  0.37270000  1
  H  H630  1  0.02560000  0.31030000  0.62730000  1
  H  H631  1  0.02560000  0.68970000  0.37270000  1
  H  H632  1  0.62730000  0.97440000  0.68970000  1
  H  H633  1  0.37270000  0.97440000  0.31030000  1
  H  H634  1  0.62730000  0.02560000  0.31030000  1
  H  H635  1  0.37270000  0.02560000  0.68970000  1
  H  H636  1  0.62730000  0.68970000  0.02560000  1
  H  H637  1  0.37270000  0.31030000  0.02560000  1
  H  H638  1  0.62730000  0.31030000  0.97440000  1
  H  H639  1  0.37270000  0.68970000  0.97440000  1
  H  H640  1  0.68970000  0.97440000  0.37270000  1
  H  H641  1  0.31030000  0.97440000  0.62730000  1
  H  H642  1  0.31030000  0.02560000  0.37270000  1
  H  H643  1  0.68970000  0.02560000  0.62730000  1
  H  H644  1  0.97440000  0.62730000  0.31030000  1
  H  H645  1  0.97440000  0.37270000  0.68970000  1
  H  H646  1  0.02560000  0.62730000  0.68970000  1
  H  H647  1  0.02560000  0.37270000  0.31030000  1
  H  H648  1  0.18970000  0.12730000  0.47440000  1
  H  H649  1  0.81030000  0.87270000  0.47440000  1
  H  H650  1  0.81030000  0.12730000  0.52560000  1
  H  H651  1  0.18970000  0.87270000  0.52560000  1
  H  H652  1  0.47440000  0.18970000  0.12730000  1
  H  H653  1  0.47440000  0.81030000  0.87270000  1
  H  H654  1  0.52560000  0.81030000  0.12730000  1
  H  H655  1  0.52560000  0.18970000  0.87270000  1
  H  H656  1  0.12730000  0.47440000  0.18970000  1
  H  H657  1  0.87270000  0.47440000  0.81030000  1
  H  H658  1  0.12730000  0.52560000  0.81030000  1
  H  H659  1  0.87270000  0.52560000  0.18970000  1
  H  H660  1  0.12730000  0.18970000  0.52560000  1
  H  H661  1  0.87270000  0.81030000  0.52560000  1
  H  H662  1  0.12730000  0.81030000  0.47440000  1
  H  H663  1  0.87270000  0.18970000  0.47440000  1
  H  H664  1  0.18970000  0.47440000  0.87270000  1
  H  H665  1  0.81030000  0.47440000  0.12730000  1
  H  H666  1  0.81030000  0.52560000  0.87270000  1
  H  H667  1  0.18970000  0.52560000  0.12730000  1
  H  H668  1  0.47440000  0.12730000  0.81030000  1
  H  H669  1  0.47440000  0.87270000  0.18970000  1
  H  H670  1  0.52560000  0.12730000  0.18970000  1
  H  H671  1  0.52560000  0.87270000  0.81030000  1
  C  C672  1  0.31850000  0.43501500  0.00001100  1
  C  C673  1  0.68150000  0.56498500  0.00001100  1
  C  C674  1  0.68150000  0.43501500  0.00000000  1
  C  C675  1  0.31850000  0.56498500  0.00000000  1
  C  C676  1  0.00001100  0.31850000  0.43501500  1
  C  C677  1  0.00001100  0.68150000  0.56498500  1
  C  C678  1  0.00000000  0.68150000  0.43501500  1
  C  C679  1  0.00000000  0.31850000  0.56498500  1
  C  C680  1  0.43501500  0.00001100  0.31850000  1
  C  C681  1  0.56498500  0.00001100  0.68150000  1
  C  C682  1  0.43501500  0.00000000  0.68150000  1
  C  C683  1  0.56498500  0.00000000  0.31850000  1
  C  C684  1  0.43501500  0.31850000  0.00000000  1
  C  C685  1  0.56498500  0.68150000  0.00000000  1
  C  C686  1  0.43501500  0.68150000  0.00001100  1
  C  C687  1  0.56498500  0.31850000  0.00001100  1
  C  C688  1  0.31850000  0.00001100  0.56498500  1
  C  C689  1  0.68150000  0.00001100  0.43501500  1
  C  C690  1  0.68150000  0.00000000  0.56498500  1
  C  C691  1  0.31850000  0.00000000  0.43501500  1
  C  C692  1  0.00001100  0.43501500  0.68150000  1
  C  C693  1  0.00001100  0.56498500  0.31850000  1
  C  C694  1  0.00000000  0.43501500  0.31850000  1
  C  C695  1  0.00000000  0.56498500  0.68150000  1
  C  C696  1  0.81850000  0.93501500  0.50001100  1
  C  C697  1  0.18150000  0.06498500  0.50001100  1
  C  C698  1  0.18150000  0.93501500  0.49998900  1
  C  C699  1  0.81850000  0.06498500  0.49998900  1
  C  C700  1  0.50001100  0.81850000  0.93501500  1
  C  C701  1  0.50001100  0.18150000  0.06498500  1
  C  C702  1  0.49998900  0.18150000  0.93501500  1
  C  C703  1  0.49998900  0.81850000  0.06498500  1
  C  C704  1  0.93501500  0.50001100  0.81850000  1
  C  C705  1  0.06498500  0.50001100  0.18150000  1
  C  C706  1  0.93501500  0.49998900  0.18150000  1
  C  C707  1  0.06498500  0.49998900  0.81850000  1
  C  C708  1  0.93501500  0.81850000  0.49998900  1
  C  C709  1  0.06498500  0.18150000  0.49998900  1
  C  C710  1  0.93501500  0.18150000  0.50001100  1
  C  C711  1  0.06498500  0.81850000  0.50001100  1
  C  C712  1  0.81850000  0.50001100  0.06498500  1
  C  C713  1  0.18150000  0.50001100  0.93501500  1
  C  C714  1  0.18150000  0.49998900  0.06498500  1
  C  C715  1  0.81850000  0.49998900  0.93501500  1
  C  C716  1  0.50001100  0.93501500  0.18150000  1
  C  C717  1  0.50001100  0.06498500  0.81850000  1
  C  C718  1  0.49998900  0.93501500  0.81850000  1
  C  C719  1  0.49998900  0.06498500  0.18150000  1
  H  H720  1  0.34960000  0.43440000  0.00000000  1
  H  H721  1  0.65040000  0.56560000  0.00000000  1
  H  H722  1  0.65040000  0.43440000  0.00000000  1
  H  H723  1  0.34960000  0.56560000  0.00000000  1
  H  H724  1  0.00000000  0.34960000  0.43440000  1
  H  H725  1  0.00000000  0.65040000  0.56560000  1
  H  H726  1  0.00000000  0.65040000  0.43440000  1
  H  H727  1  0.00000000  0.34960000  0.56560000  1
  H  H728  1  0.43440000  0.00000000  0.34960000  1
  H  H729  1  0.56560000  0.00000000  0.65040000  1
  H  H730  1  0.43440000  0.00000000  0.65040000  1
  H  H731  1  0.56560000  0.00000000  0.34960000  1
  H  H732  1  0.43440000  0.34960000  0.00000000  1
  H  H733  1  0.56560000  0.65040000  0.00000000  1
  H  H734  1  0.43440000  0.65040000  0.00000000  1
  H  H735  1  0.56560000  0.34960000  0.00000000  1
  H  H736  1  0.34960000  0.00000000  0.56560000  1
  H  H737  1  0.65040000  0.00000000  0.43440000  1
  H  H738  1  0.65040000  0.00000000  0.56560000  1
  H  H739  1  0.34960000  0.00000000  0.43440000  1
  H  H740  1  0.00000000  0.43440000  0.65040000  1
  H  H741  1  0.00000000  0.56560000  0.34960000  1
  H  H742  1  0.00000000  0.43440000  0.34960000  1
  H  H743  1  0.00000000  0.56560000  0.65040000  1
  H  H744  1  0.84960000  0.93440000  0.50000000  1
  H  H745  1  0.15040000  0.06560000  0.50000000  1
  H  H746  1  0.15040000  0.93440000  0.50000000  1
  H  H747  1  0.84960000  0.06560000  0.50000000  1
  H  H748  1  0.50000000  0.84960000  0.93440000  1
  H  H749  1  0.50000000  0.15040000  0.06560000  1
  H  H750  1  0.50000000  0.15040000  0.93440000  1
  H  H751  1  0.50000000  0.84960000  0.06560000  1
  H  H752  1  0.93440000  0.50000000  0.84960000  1
  H  H753  1  0.06560000  0.50000000  0.15040000  1
  H  H754  1  0.93440000  0.50000000  0.15040000  1
  H  H755  1  0.06560000  0.50000000  0.84960000  1
  H  H756  1  0.93440000  0.84960000  0.50000000  1
  H  H757  1  0.06560000  0.15040000  0.50000000  1
  H  H758  1  0.93440000  0.15040000  0.50000000  1
  H  H759  1  0.06560000  0.84960000  0.50000000  1
  H  H760  1  0.84960000  0.50000000  0.06560000  1
  H  H761  1  0.15040000  0.50000000  0.93440000  1
  H  H762  1  0.15040000  0.50000000  0.06560000  1
  H  H763  1  0.84960000  0.50000000  0.93440000  1
  H  H764  1  0.50000000  0.93440000  0.15040000  1
  H  H765  1  0.50000000  0.06560000  0.84960000  1
  H  H766  1  0.50000000  0.93440000  0.84960000  1
  H  H767  1  0.50000000  0.06560000  0.15040000  1
  H  H768  1  0.30840000  0.44990000  0.02540000  1
  H  H769  1  0.69160000  0.55010000  0.02540000  1
  H  H770  1  0.69160000  0.44990000  0.97460000  1
  H  H771  1  0.30840000  0.55010000  0.97460000  1
  H  H772  1  0.02540000  0.30840000  0.44990000  1
  H  H773  1  0.02540000  0.69160000  0.55010000  1
  H  H774  1  0.97460000  0.69160000  0.44990000  1
  H  H775  1  0.97460000  0.30840000  0.55010000  1
  H  H776  1  0.44990000  0.02540000  0.30840000  1
  H  H777  1  0.55010000  0.02540000  0.69160000  1
  H  H778  1  0.44990000  0.97460000  0.69160000  1
  H  H779  1  0.55010000  0.97460000  0.30840000  1
  H  H780  1  0.44990000  0.30840000  0.97460000  1
  H  H781  1  0.55010000  0.69160000  0.97460000  1
  H  H782  1  0.44990000  0.69160000  0.02540000  1
  H  H783  1  0.55010000  0.30840000  0.02540000  1
  H  H784  1  0.30840000  0.02540000  0.55010000  1
  H  H785  1  0.69160000  0.02540000  0.44990000  1
  H  H786  1  0.69160000  0.97460000  0.55010000  1
  H  H787  1  0.30840000  0.97460000  0.44990000  1
  H  H788  1  0.02540000  0.44990000  0.69160000  1
  H  H789  1  0.02540000  0.55010000  0.30840000  1
  H  H790  1  0.97460000  0.44990000  0.30840000  1
  H  H791  1  0.97460000  0.55010000  0.69160000  1
  H  H792  1  0.80840000  0.94990000  0.52540000  1
  H  H793  1  0.19160000  0.05010000  0.52540000  1
  H  H794  1  0.19160000  0.94990000  0.47460000  1
  H  H795  1  0.80840000  0.05010000  0.47460000  1
  H  H796  1  0.52540000  0.80840000  0.94990000  1
  H  H797  1  0.52540000  0.19160000  0.05010000  1
  H  H798  1  0.47460000  0.19160000  0.94990000  1
  H  H799  1  0.47460000  0.80840000  0.05010000  1
  H  H800  1  0.94990000  0.52540000  0.80840000  1
  H  H801  1  0.05010000  0.52540000  0.19160000  1
  H  H802  1  0.94990000  0.47460000  0.19160000  1
  H  H803  1  0.05010000  0.47460000  0.80840000  1
  H  H804  1  0.94990000  0.80840000  0.47460000  1
  H  H805  1  0.05010000  0.19160000  0.47460000  1
  H  H806  1  0.94990000  0.19160000  0.52540000  1
  H  H807  1  0.05010000  0.80840000  0.52540000  1
  H  H808  1  0.80840000  0.52540000  0.05010000  1
  H  H809  1  0.19160000  0.52540000  0.94990000  1
  H  H810  1  0.19160000  0.47460000  0.05010000  1
  H  H811  1  0.80840000  0.47460000  0.94990000  1
  H  H812  1  0.52540000  0.94990000  0.19160000  1
  H  H813  1  0.52540000  0.05010000  0.80840000  1
  H  H814  1  0.47460000  0.94990000  0.80840000  1
  H  H815  1  0.47460000  0.05010000  0.19160000  1
  H  H816  1  0.69160000  0.55010000  0.97460000  1
  H  H817  1  0.30840000  0.44990000  0.97460000  1
  H  H818  1  0.30840000  0.55010000  0.02540000  1
  H  H819  1  0.69160000  0.44990000  0.02540000  1
  H  H820  1  0.97460000  0.69160000  0.55010000  1
  H  H821  1  0.97460000  0.30840000  0.44990000  1
  H  H822  1  0.02540000  0.30840000  0.55010000  1
  H  H823  1  0.02540000  0.69160000  0.44990000  1
  H  H824  1  0.55010000  0.97460000  0.69160000  1
  H  H825  1  0.44990000  0.97460000  0.30840000  1
  H  H826  1  0.55010000  0.02540000  0.30840000  1
  H  H827  1  0.44990000  0.02540000  0.69160000  1
  H  H828  1  0.55010000  0.69160000  0.02540000  1
  H  H829  1  0.44990000  0.30840000  0.02540000  1
  H  H830  1  0.55010000  0.30840000  0.97460000  1
  H  H831  1  0.44990000  0.69160000  0.97460000  1
  H  H832  1  0.69160000  0.97460000  0.44990000  1
  H  H833  1  0.30840000  0.97460000  0.55010000  1
  H  H834  1  0.30840000  0.02540000  0.44990000  1
  H  H835  1  0.69160000  0.02540000  0.55010000  1
  H  H836  1  0.97460000  0.55010000  0.30840000  1
  H  H837  1  0.97460000  0.44990000  0.69160000  1
  H  H838  1  0.02540000  0.55010000  0.69160000  1
  H  H839  1  0.02540000  0.44990000  0.30840000  1
  H  H840  1  0.19160000  0.05010000  0.47460000  1
  H  H841  1  0.80840000  0.94990000  0.47460000  1
  H  H842  1  0.80840000  0.05010000  0.52540000  1
  H  H843  1  0.19160000  0.94990000  0.52540000  1
  H  H844  1  0.47460000  0.19160000  0.05010000  1
  H  H845  1  0.47460000  0.80840000  0.94990000  1
  H  H846  1  0.52540000  0.80840000  0.05010000  1
  H  H847  1  0.52540000  0.19160000  0.94990000  1
  H  H848  1  0.05010000  0.47460000  0.19160000  1
  H  H849  1  0.94990000  0.47460000  0.80840000  1
  H  H850  1  0.05010000  0.52540000  0.80840000  1
  H  H851  1  0.94990000  0.52540000  0.19160000  1
  H  H852  1  0.05010000  0.19160000  0.52540000  1
  H  H853  1  0.94990000  0.80840000  0.52540000  1
  H  H854  1  0.05010000  0.80840000  0.47460000  1
  H  H855  1  0.94990000  0.19160000  0.47460000  1
  H  H856  1  0.19160000  0.47460000  0.94990000  1
  H  H857  1  0.80840000  0.47460000  0.05010000  1
  H  H858  1  0.80840000  0.52540000  0.94990000  1
  H  H859  1  0.19160000  0.52540000  0.05010000  1
  H  H860  1  0.47460000  0.05010000  0.80840000  1
  H  H861  1  0.47460000  0.94990000  0.19160000  1
  H  H862  1  0.52540000  0.05010000  0.19160000  1
  H  H863  1  0.52540000  0.94990000  0.80840000  1
  C  C864  1  0.15118000  0.38857000  0.11938000  1
  C  C865  1  0.84882000  0.61143000  0.11938000  1
  C  C866  1  0.84882000  0.38857000  0.88062000  1
  C  C867  1  0.15118000  0.61143000  0.88062000  1
  C  C868  1  0.11938000  0.15118000  0.38857000  1
  C  C869  1  0.11938000  0.84882000  0.61143000  1
  C  C870  1  0.88062000  0.84882000  0.38857000  1
  C  C871  1  0.88062000  0.15118000  0.61143000  1
  C  C872  1  0.38857000  0.11938000  0.15118000  1
  C  C873  1  0.61143000  0.11938000  0.84882000  1
  C  C874  1  0.38857000  0.88062000  0.84882000  1
  C  C875  1  0.61143000  0.88062000  0.15118000  1
  C  C876  1  0.38857000  0.15118000  0.88062000  1
  C  C877  1  0.61143000  0.84882000  0.88062000  1
  C  C878  1  0.38857000  0.84882000  0.11938000  1
  C  C879  1  0.61143000  0.15118000  0.11938000  1
  C  C880  1  0.15118000  0.11938000  0.61143000  1
  C  C881  1  0.84882000  0.11938000  0.38857000  1
  C  C882  1  0.84882000  0.88062000  0.61143000  1
  C  C883  1  0.15118000  0.88062000  0.38857000  1
  C  C884  1  0.11938000  0.38857000  0.84882000  1
  C  C885  1  0.11938000  0.61143000  0.15118000  1
  C  C886  1  0.88062000  0.38857000  0.15118000  1
  C  C887  1  0.88062000  0.61143000  0.84882000  1
  C  C888  1  0.65118000  0.88857000  0.61938000  1
  C  C889  1  0.34882000  0.11143000  0.61938000  1
  C  C890  1  0.34882000  0.88857000  0.38062000  1
  C  C891  1  0.65118000  0.11143000  0.38062000  1
  C  C892  1  0.61938000  0.65118000  0.88857000  1
  C  C893  1  0.61938000  0.34882000  0.11143000  1
  C  C894  1  0.38062000  0.34882000  0.88857000  1
  C  C895  1  0.38062000  0.65118000  0.11143000  1
  C  C896  1  0.88857000  0.61938000  0.65118000  1
  C  C897  1  0.11143000  0.61938000  0.34882000  1
  C  C898  1  0.88857000  0.38062000  0.34882000  1
  C  C899  1  0.11143000  0.38062000  0.65118000  1
  C  C900  1  0.88857000  0.65118000  0.38062000  1
  C  C901  1  0.11143000  0.34882000  0.38062000  1
  C  C902  1  0.88857000  0.34882000  0.61938000  1
  C  C903  1  0.11143000  0.65118000  0.61938000  1
  C  C904  1  0.65118000  0.61938000  0.11143000  1
  C  C905  1  0.34882000  0.61938000  0.88857000  1
  C  C906  1  0.34882000  0.38062000  0.11143000  1
  C  C907  1  0.65118000  0.38062000  0.88857000  1
  C  C908  1  0.61938000  0.88857000  0.34882000  1
  C  C909  1  0.61938000  0.11143000  0.65118000  1
  C  C910  1  0.38062000  0.88857000  0.65118000  1
  C  C911  1  0.38062000  0.11143000  0.34882000  1
  C  C912  1  0.84882000  0.61143000  0.88062000  1
  C  C913  1  0.15118000  0.38857000  0.88062000  1
  C  C914  1  0.15118000  0.61143000  0.11938000  1
  C  C915  1  0.84882000  0.38857000  0.11938000  1
  C  C916  1  0.88062000  0.84882000  0.61143000  1
  C  C917  1  0.88062000  0.15118000  0.38857000  1
  C  C918  1  0.11938000  0.15118000  0.61143000  1
  C  C919  1  0.11938000  0.84882000  0.38857000  1
  C  C920  1  0.61143000  0.88062000  0.84882000  1
  C  C921  1  0.38857000  0.88062000  0.15118000  1
  C  C922  1  0.61143000  0.11938000  0.15118000  1
  C  C923  1  0.38857000  0.11938000  0.84882000  1
  C  C924  1  0.61143000  0.84882000  0.11938000  1
  C  C925  1  0.38857000  0.15118000  0.11938000  1
  C  C926  1  0.61143000  0.15118000  0.88062000  1
  C  C927  1  0.38857000  0.84882000  0.88062000  1
  C  C928  1  0.84882000  0.88062000  0.38857000  1
  C  C929  1  0.15118000  0.88062000  0.61143000  1
  C  C930  1  0.15118000  0.11938000  0.38857000  1
  C  C931  1  0.84882000  0.11938000  0.61143000  1
  C  C932  1  0.88062000  0.61143000  0.15118000  1
  C  C933  1  0.88062000  0.38857000  0.84882000  1
  C  C934  1  0.11938000  0.61143000  0.84882000  1
  C  C935  1  0.11938000  0.38857000  0.15118000  1
  C  C936  1  0.34882000  0.11143000  0.38062000  1
  C  C937  1  0.65118000  0.88857000  0.38062000  1
  C  C938  1  0.65118000  0.11143000  0.61938000  1
  C  C939  1  0.34882000  0.88857000  0.61938000  1
  C  C940  1  0.38062000  0.34882000  0.11143000  1
  C  C941  1  0.38062000  0.65118000  0.88857000  1
  C  C942  1  0.61938000  0.65118000  0.11143000  1
  C  C943  1  0.61938000  0.34882000  0.88857000  1
  C  C944  1  0.11143000  0.38062000  0.34882000  1
  C  C945  1  0.88857000  0.38062000  0.65118000  1
  C  C946  1  0.11143000  0.61938000  0.65118000  1
  C  C947  1  0.88857000  0.61938000  0.34882000  1
  C  C948  1  0.11143000  0.34882000  0.61938000  1
  C  C949  1  0.88857000  0.65118000  0.61938000  1
  C  C950  1  0.11143000  0.65118000  0.38062000  1
  C  C951  1  0.88857000  0.34882000  0.38062000  1
  C  C952  1  0.34882000  0.38062000  0.88857000  1
  C  C953  1  0.65118000  0.38062000  0.11143000  1
  C  C954  1  0.65118000  0.61938000  0.88857000  1
  C  C955  1  0.34882000  0.61938000  0.11143000  1
  C  C956  1  0.38062000  0.11143000  0.65118000  1
  C  C957  1  0.38062000  0.88857000  0.34882000  1
  C  C958  1  0.61938000  0.11143000  0.34882000  1
  C  C959  1  0.61938000  0.88857000  0.65118000  1
  H  H960  1  0.14690000  0.39280000  0.08980000  1
  H  H961  1  0.85310000  0.60720000  0.08980000  1
  H  H962  1  0.85310000  0.39280000  0.91020000  1
  H  H963  1  0.14690000  0.60720000  0.91020000  1
  H  H964  1  0.08980000  0.14690000  0.39280000  1
  H  H965  1  0.08980000  0.85310000  0.60720000  1
  H  H966  1  0.91020000  0.85310000  0.39280000  1
  H  H967  1  0.91020000  0.14690000  0.60720000  1
  H  H968  1  0.39280000  0.08980000  0.14690000  1
  H  H969  1  0.60720000  0.08980000  0.85310000  1
  H  H970  1  0.39280000  0.91020000  0.85310000  1
  H  H971  1  0.60720000  0.91020000  0.14690000  1
  H  H972  1  0.39280000  0.14690000  0.91020000  1
  H  H973  1  0.60720000  0.85310000  0.91020000  1
  H  H974  1  0.39280000  0.85310000  0.08980000  1
  H  H975  1  0.60720000  0.14690000  0.08980000  1
  H  H976  1  0.14690000  0.08980000  0.60720000  1
  H  H977  1  0.85310000  0.08980000  0.39280000  1
  H  H978  1  0.85310000  0.91020000  0.60720000  1
  H  H979  1  0.14690000  0.91020000  0.39280000  1
  H  H980  1  0.08980000  0.39280000  0.85310000  1
  H  H981  1  0.08980000  0.60720000  0.14690000  1
  H  H982  1  0.91020000  0.39280000  0.14690000  1
  H  H983  1  0.91020000  0.60720000  0.85310000  1
  H  H984  1  0.64690000  0.89280000  0.58980000  1
  H  H985  1  0.35310000  0.10720000  0.58980000  1
  H  H986  1  0.35310000  0.89280000  0.41020000  1
  H  H987  1  0.64690000  0.10720000  0.41020000  1
  H  H988  1  0.58980000  0.64690000  0.89280000  1
  H  H989  1  0.58980000  0.35310000  0.10720000  1
  H  H990  1  0.41020000  0.35310000  0.89280000  1
  H  H991  1  0.41020000  0.64690000  0.10720000  1
  H  H992  1  0.89280000  0.58980000  0.64690000  1
  H  H993  1  0.10720000  0.58980000  0.35310000  1
  H  H994  1  0.89280000  0.41020000  0.35310000  1
  H  H995  1  0.10720000  0.41020000  0.64690000  1
  H  H996  1  0.89280000  0.64690000  0.41020000  1
  H  H997  1  0.10720000  0.35310000  0.41020000  1
  H  H998  1  0.89280000  0.35310000  0.58980000  1
  H  H999  1  0.10720000  0.64690000  0.58980000  1
  H  H1000  1  0.64690000  0.58980000  0.10720000  1
  H  H1001  1  0.35310000  0.58980000  0.89280000  1
  H  H1002  1  0.35310000  0.41020000  0.10720000  1
  H  H1003  1  0.64690000  0.41020000  0.89280000  1
  H  H1004  1  0.58980000  0.89280000  0.35310000  1
  H  H1005  1  0.58980000  0.10720000  0.64690000  1
  H  H1006  1  0.41020000  0.89280000  0.64690000  1
  H  H1007  1  0.41020000  0.10720000  0.35310000  1
  H  H1008  1  0.85310000  0.60720000  0.91020000  1
  H  H1009  1  0.14690000  0.39280000  0.91020000  1
  H  H1010  1  0.14690000  0.60720000  0.08980000  1
  H  H1011  1  0.85310000  0.39280000  0.08980000  1
  H  H1012  1  0.91020000  0.85310000  0.60720000  1
  H  H1013  1  0.91020000  0.14690000  0.39280000  1
  H  H1014  1  0.08980000  0.14690000  0.60720000  1
  H  H1015  1  0.08980000  0.85310000  0.39280000  1
  H  H1016  1  0.60720000  0.91020000  0.85310000  1
  H  H1017  1  0.39280000  0.91020000  0.14690000  1
  H  H1018  1  0.60720000  0.08980000  0.14690000  1
  H  H1019  1  0.39280000  0.08980000  0.85310000  1
  H  H1020  1  0.60720000  0.85310000  0.08980000  1
  H  H1021  1  0.39280000  0.14690000  0.08980000  1
  H  H1022  1  0.60720000  0.14690000  0.91020000  1
  H  H1023  1  0.39280000  0.85310000  0.91020000  1
  H  H1024  1  0.85310000  0.91020000  0.39280000  1
  H  H1025  1  0.14690000  0.91020000  0.60720000  1
  H  H1026  1  0.14690000  0.08980000  0.39280000  1
  H  H1027  1  0.85310000  0.08980000  0.60720000  1
  H  H1028  1  0.91020000  0.60720000  0.14690000  1
  H  H1029  1  0.91020000  0.39280000  0.85310000  1
  H  H1030  1  0.08980000  0.60720000  0.85310000  1
  H  H1031  1  0.08980000  0.39280000  0.14690000  1
  H  H1032  1  0.35310000  0.10720000  0.41020000  1
  H  H1033  1  0.64690000  0.89280000  0.41020000  1
  H  H1034  1  0.64690000  0.10720000  0.58980000  1
  H  H1035  1  0.35310000  0.89280000  0.58980000  1
  H  H1036  1  0.41020000  0.35310000  0.10720000  1
  H  H1037  1  0.41020000  0.64690000  0.89280000  1
  H  H1038  1  0.58980000  0.64690000  0.10720000  1
  H  H1039  1  0.58980000  0.35310000  0.89280000  1
  H  H1040  1  0.10720000  0.41020000  0.35310000  1
  H  H1041  1  0.89280000  0.41020000  0.64690000  1
  H  H1042  1  0.10720000  0.58980000  0.64690000  1
  H  H1043  1  0.89280000  0.58980000  0.35310000  1
  H  H1044  1  0.10720000  0.35310000  0.58980000  1
  H  H1045  1  0.89280000  0.64690000  0.58980000  1
  H  H1046  1  0.10720000  0.64690000  0.41020000  1
  H  H1047  1  0.89280000  0.35310000  0.41020000  1
  H  H1048  1  0.35310000  0.41020000  0.89280000  1
  H  H1049  1  0.64690000  0.41020000  0.10720000  1
  H  H1050  1  0.64690000  0.58980000  0.89280000  1
  H  H1051  1  0.35310000  0.58980000  0.10720000  1
  H  H1052  1  0.41020000  0.10720000  0.64690000  1
  H  H1053  1  0.41020000  0.89280000  0.35310000  1
  H  H1054  1  0.58980000  0.10720000  0.35310000  1
  H  H1055  1  0.58980000  0.89280000  0.64690000  1
  C  C1056  1  0.21375000  0.37341300  0.21375000  1
  C  C1057  1  0.78625000  0.62658700  0.21375000  1
  C  C1058  1  0.78625000  0.37341300  0.78625000  1
  C  C1059  1  0.21375000  0.62658700  0.78625000  1
  C  C1060  1  0.21375000  0.21375000  0.37341300  1
  C  C1061  1  0.21375000  0.78625000  0.62658700  1
  C  C1062  1  0.78625000  0.78625000  0.37341300  1
  C  C1063  1  0.78625000  0.21375000  0.62658700  1
  C  C1064  1  0.37341300  0.21375000  0.21375000  1
  C  C1065  1  0.62658700  0.21375000  0.78625000  1
  C  C1066  1  0.37341300  0.78625000  0.78625000  1
  C  C1067  1  0.62658700  0.78625000  0.21375000  1
  C  C1068  1  0.37341300  0.21375000  0.78625000  1
  C  C1069  1  0.62658700  0.78625000  0.78625000  1
  C  C1070  1  0.37341300  0.78625000  0.21375000  1
  C  C1071  1  0.62658700  0.21375000  0.21375000  1
  C  C1072  1  0.21375000  0.21375000  0.62658700  1
  C  C1073  1  0.78625000  0.21375000  0.37341300  1
  C  C1074  1  0.78625000  0.78625000  0.62658700  1
  C  C1075  1  0.21375000  0.78625000  0.37341300  1
  C  C1076  1  0.21375000  0.37341300  0.78625000  1
  C  C1077  1  0.21375000  0.62658700  0.21375000  1
  C  C1078  1  0.78625000  0.37341300  0.21375000  1
  C  C1079  1  0.78625000  0.62658700  0.78625000  1
  C  C1080  1  0.71375000  0.87341300  0.71375000  1
  C  C1081  1  0.28625000  0.12658700  0.71375000  1
  C  C1082  1  0.28625000  0.87341300  0.28625000  1
  C  C1083  1  0.71375000  0.12658700  0.28625000  1
  C  C1084  1  0.71375000  0.71375000  0.87341300  1
  C  C1085  1  0.71375000  0.28625000  0.12658700  1
  C  C1086  1  0.28625000  0.28625000  0.87341300  1
  C  C1087  1  0.28625000  0.71375000  0.12658700  1
  C  C1088  1  0.87341300  0.71375000  0.71375000  1
  C  C1089  1  0.12658700  0.71375000  0.28625000  1
  C  C1090  1  0.87341300  0.28625000  0.28625000  1
  C  C1091  1  0.12658700  0.28625000  0.71375000  1
  C  C1092  1  0.87341300  0.71375000  0.28625000  1
  C  C1093  1  0.12658700  0.28625000  0.28625000  1
  C  C1094  1  0.87341300  0.28625000  0.71375000  1
  C  C1095  1  0.12658700  0.71375000  0.71375000  1
  C  C1096  1  0.71375000  0.71375000  0.12658700  1
  C  C1097  1  0.28625000  0.71375000  0.87341300  1
  C  C1098  1  0.28625000  0.28625000  0.12658700  1
  C  C1099  1  0.71375000  0.28625000  0.87341300  1
  C  C1100  1  0.71375000  0.87341300  0.28625000  1
  C  C1101  1  0.71375000  0.12658700  0.71375000  1
  C  C1102  1  0.28625000  0.87341300  0.71375000  1
  C  C1103  1  0.28625000  0.12658700  0.28625000  1
  H  H1104  1  0.23790000  0.35780000  0.20120000  1
  H  H1105  1  0.76210000  0.64220000  0.20120000  1
  H  H1106  1  0.76210000  0.35780000  0.79880000  1
  H  H1107  1  0.23790000  0.64220000  0.79880000  1
  H  H1108  1  0.20120000  0.23790000  0.35780000  1
  H  H1109  1  0.20120000  0.76210000  0.64220000  1
  H  H1110  1  0.79880000  0.76210000  0.35780000  1
  H  H1111  1  0.79880000  0.23790000  0.64220000  1
  H  H1112  1  0.35780000  0.20120000  0.23790000  1
  H  H1113  1  0.64220000  0.20120000  0.76210000  1
  H  H1114  1  0.35780000  0.79880000  0.76210000  1
  H  H1115  1  0.64220000  0.79880000  0.23790000  1
  H  H1116  1  0.35780000  0.23790000  0.79880000  1
  H  H1117  1  0.64220000  0.76210000  0.79880000  1
  H  H1118  1  0.35780000  0.76210000  0.20120000  1
  H  H1119  1  0.64220000  0.23790000  0.20120000  1
  H  H1120  1  0.23790000  0.20120000  0.64220000  1
  H  H1121  1  0.76210000  0.20120000  0.35780000  1
  H  H1122  1  0.76210000  0.79880000  0.64220000  1
  H  H1123  1  0.23790000  0.79880000  0.35780000  1
  H  H1124  1  0.20120000  0.35780000  0.76210000  1
  H  H1125  1  0.20120000  0.64220000  0.23790000  1
  H  H1126  1  0.79880000  0.35780000  0.23790000  1
  H  H1127  1  0.79880000  0.64220000  0.76210000  1
  H  H1128  1  0.73790000  0.85780000  0.70120000  1
  H  H1129  1  0.26210000  0.14220000  0.70120000  1
  H  H1130  1  0.26210000  0.85780000  0.29880000  1
  H  H1131  1  0.73790000  0.14220000  0.29880000  1
  H  H1132  1  0.70120000  0.73790000  0.85780000  1
  H  H1133  1  0.70120000  0.26210000  0.14220000  1
  H  H1134  1  0.29880000  0.26210000  0.85780000  1
  H  H1135  1  0.29880000  0.73790000  0.14220000  1
  H  H1136  1  0.85780000  0.70120000  0.73790000  1
  H  H1137  1  0.14220000  0.70120000  0.26210000  1
  H  H1138  1  0.85780000  0.29880000  0.26210000  1
  H  H1139  1  0.14220000  0.29880000  0.73790000  1
  H  H1140  1  0.85780000  0.73790000  0.29880000  1
  H  H1141  1  0.14220000  0.26210000  0.29880000  1
  H  H1142  1  0.85780000  0.26210000  0.70120000  1
  H  H1143  1  0.14220000  0.73790000  0.70120000  1
  H  H1144  1  0.73790000  0.70120000  0.14220000  1
  H  H1145  1  0.26210000  0.70120000  0.85780000  1
  H  H1146  1  0.26210000  0.29880000  0.14220000  1
  H  H1147  1  0.73790000  0.29880000  0.85780000  1
  H  H1148  1  0.70120000  0.85780000  0.26210000  1
  H  H1149  1  0.70120000  0.14220000  0.73790000  1
  H  H1150  1  0.29880000  0.85780000  0.73790000  1
  H  H1151  1  0.29880000  0.14220000  0.26210000  1
  H  H1152  1  0.76210000  0.64220000  0.79880000  1
  H  H1153  1  0.23790000  0.35780000  0.79880000  1
  H  H1154  1  0.23790000  0.64220000  0.20120000  1
  H  H1155  1  0.76210000  0.35780000  0.20120000  1
  H  H1156  1  0.79880000  0.76210000  0.64220000  1
  H  H1157  1  0.79880000  0.23790000  0.35780000  1
  H  H1158  1  0.20120000  0.23790000  0.64220000  1
  H  H1159  1  0.20120000  0.76210000  0.35780000  1
  H  H1160  1  0.64220000  0.79880000  0.76210000  1
  H  H1161  1  0.35780000  0.79880000  0.23790000  1
  H  H1162  1  0.64220000  0.20120000  0.23790000  1
  H  H1163  1  0.35780000  0.20120000  0.76210000  1
  H  H1164  1  0.64220000  0.76210000  0.20120000  1
  H  H1165  1  0.35780000  0.23790000  0.20120000  1
  H  H1166  1  0.64220000  0.23790000  0.79880000  1
  H  H1167  1  0.35780000  0.76210000  0.79880000  1
  H  H1168  1  0.76210000  0.79880000  0.35780000  1
  H  H1169  1  0.23790000  0.79880000  0.64220000  1
  H  H1170  1  0.23790000  0.20120000  0.35780000  1
  H  H1171  1  0.76210000  0.20120000  0.64220000  1
  H  H1172  1  0.79880000  0.64220000  0.23790000  1
  H  H1173  1  0.79880000  0.35780000  0.76210000  1
  H  H1174  1  0.20120000  0.64220000  0.76210000  1
  H  H1175  1  0.20120000  0.35780000  0.23790000  1
  H  H1176  1  0.26210000  0.14220000  0.29880000  1
  H  H1177  1  0.73790000  0.85780000  0.29880000  1
  H  H1178  1  0.73790000  0.14220000  0.70120000  1
  H  H1179  1  0.26210000  0.85780000  0.70120000  1
  H  H1180  1  0.29880000  0.26210000  0.14220000  1
  H  H1181  1  0.29880000  0.73790000  0.85780000  1
  H  H1182  1  0.70120000  0.73790000  0.14220000  1
  H  H1183  1  0.70120000  0.26210000  0.85780000  1
  H  H1184  1  0.14220000  0.29880000  0.26210000  1
  H  H1185  1  0.85780000  0.29880000  0.73790000  1
  H  H1186  1  0.14220000  0.70120000  0.73790000  1
  H  H1187  1  0.85780000  0.70120000  0.26210000  1
  H  H1188  1  0.14220000  0.26210000  0.70120000  1
  H  H1189  1  0.85780000  0.73790000  0.70120000  1
  H  H1190  1  0.14220000  0.73790000  0.29880000  1
  H  H1191  1  0.85780000  0.26210000  0.29880000  1
  H  H1192  1  0.26210000  0.29880000  0.85780000  1
  H  H1193  1  0.73790000  0.29880000  0.14220000  1
  H  H1194  1  0.73790000  0.70120000  0.85780000  1
  H  H1195  1  0.26210000  0.70120000  0.14220000  1
  H  H1196  1  0.29880000  0.14220000  0.73790000  1
  H  H1197  1  0.29880000  0.85780000  0.26210000  1
  H  H1198  1  0.70120000  0.14220000  0.26210000  1
  H  H1199  1  0.70120000  0.85780000  0.73790000  1
  C  C1200  1  0.22278000  0.42151700  0.22278000  1
  C  C1201  1  0.77722000  0.57848300  0.22278000  1
  C  C1202  1  0.77722000  0.42151700  0.77722000  1
  C  C1203  1  0.22278000  0.57848300  0.77722000  1
  C  C1204  1  0.22278000  0.22278000  0.42151700  1
  C  C1205  1  0.22278000  0.77722000  0.57848300  1
  C  C1206  1  0.77722000  0.77722000  0.42151700  1
  C  C1207  1  0.77722000  0.22278000  0.57848300  1
  C  C1208  1  0.42151700  0.22278000  0.22278000  1
  C  C1209  1  0.57848300  0.22278000  0.77722000  1
  C  C1210  1  0.42151700  0.77722000  0.77722000  1
  C  C1211  1  0.57848300  0.77722000  0.22278000  1
  C  C1212  1  0.42151700  0.22278000  0.77722000  1
  C  C1213  1  0.57848300  0.77722000  0.77722000  1
  C  C1214  1  0.42151700  0.77722000  0.22278000  1
  C  C1215  1  0.57848300  0.22278000  0.22278000  1
  C  C1216  1  0.22278000  0.22278000  0.57848300  1
  C  C1217  1  0.77722000  0.22278000  0.42151700  1
  C  C1218  1  0.77722000  0.77722000  0.57848300  1
  C  C1219  1  0.22278000  0.77722000  0.42151700  1
  C  C1220  1  0.22278000  0.42151700  0.77722000  1
  C  C1221  1  0.22278000  0.57848300  0.22278000  1
  C  C1222  1  0.77722000  0.42151700  0.22278000  1
  C  C1223  1  0.77722000  0.57848300  0.77722000  1
  C  C1224  1  0.72278000  0.92151700  0.72278000  1
  C  C1225  1  0.27722000  0.07848300  0.72278000  1
  C  C1226  1  0.27722000  0.92151700  0.27722000  1
  C  C1227  1  0.72278000  0.07848300  0.27722000  1
  C  C1228  1  0.72278000  0.72278000  0.92151700  1
  C  C1229  1  0.72278000  0.27722000  0.07848300  1
  C  C1230  1  0.27722000  0.27722000  0.92151700  1
  C  C1231  1  0.27722000  0.72278000  0.07848300  1
  C  C1232  1  0.92151700  0.72278000  0.72278000  1
  C  C1233  1  0.07848300  0.72278000  0.27722000  1
  C  C1234  1  0.92151700  0.27722000  0.27722000  1
  C  C1235  1  0.07848300  0.27722000  0.72278000  1
  C  C1236  1  0.92151700  0.72278000  0.27722000  1
  C  C1237  1  0.07848300  0.27722000  0.27722000  1
  C  C1238  1  0.92151700  0.27722000  0.72278000  1
  C  C1239  1  0.07848300  0.72278000  0.72278000  1
  C  C1240  1  0.72278000  0.72278000  0.07848300  1
  C  C1241  1  0.27722000  0.72278000  0.92151700  1
  C  C1242  1  0.27722000  0.27722000  0.07848300  1
  C  C1243  1  0.72278000  0.27722000  0.92151700  1
  C  C1244  1  0.72278000  0.92151700  0.27722000  1
  C  C1245  1  0.72278000  0.07848300  0.72278000  1
  C  C1246  1  0.27722000  0.92151700  0.72278000  1
  C  C1247  1  0.27722000  0.07848300  0.27722000  1
  H  H1248  1  0.24490000  0.42400000  0.24440000  1
  H  H1249  1  0.75510000  0.57600000  0.24440000  1
  H  H1250  1  0.75510000  0.42400000  0.75560000  1
  H  H1251  1  0.24490000  0.57600000  0.75560000  1
  H  H1252  1  0.24440000  0.24490000  0.42400000  1
  H  H1253  1  0.24440000  0.75510000  0.57600000  1
  H  H1254  1  0.75560000  0.75510000  0.42400000  1
  H  H1255  1  0.75560000  0.24490000  0.57600000  1
  H  H1256  1  0.42400000  0.24440000  0.24490000  1
  H  H1257  1  0.57600000  0.24440000  0.75510000  1
  H  H1258  1  0.42400000  0.75560000  0.75510000  1
  H  H1259  1  0.57600000  0.75560000  0.24490000  1
  H  H1260  1  0.42400000  0.24490000  0.75560000  1
  H  H1261  1  0.57600000  0.75510000  0.75560000  1
  H  H1262  1  0.42400000  0.75510000  0.24440000  1
  H  H1263  1  0.57600000  0.24490000  0.24440000  1
  H  H1264  1  0.24490000  0.24440000  0.57600000  1
  H  H1265  1  0.75510000  0.24440000  0.42400000  1
  H  H1266  1  0.75510000  0.75560000  0.57600000  1
  H  H1267  1  0.24490000  0.75560000  0.42400000  1
  H  H1268  1  0.24440000  0.42400000  0.75510000  1
  H  H1269  1  0.24440000  0.57600000  0.24490000  1
  H  H1270  1  0.75560000  0.42400000  0.24490000  1
  H  H1271  1  0.75560000  0.57600000  0.75510000  1
  H  H1272  1  0.74490000  0.92400000  0.74440000  1
  H  H1273  1  0.25510000  0.07600000  0.74440000  1
  H  H1274  1  0.25510000  0.92400000  0.25560000  1
  H  H1275  1  0.74490000  0.07600000  0.25560000  1
  H  H1276  1  0.74440000  0.74490000  0.92400000  1
  H  H1277  1  0.74440000  0.25510000  0.07600000  1
  H  H1278  1  0.25560000  0.25510000  0.92400000  1
  H  H1279  1  0.25560000  0.74490000  0.07600000  1
  H  H1280  1  0.92400000  0.74440000  0.74490000  1
  H  H1281  1  0.07600000  0.74440000  0.25510000  1
  H  H1282  1  0.92400000  0.25560000  0.25510000  1
  H  H1283  1  0.07600000  0.25560000  0.74490000  1
  H  H1284  1  0.92400000  0.74490000  0.25560000  1
  H  H1285  1  0.07600000  0.25510000  0.25560000  1
  H  H1286  1  0.92400000  0.25510000  0.74440000  1
  H  H1287  1  0.07600000  0.74490000  0.74440000  1
  H  H1288  1  0.74490000  0.74440000  0.07600000  1
  H  H1289  1  0.25510000  0.74440000  0.92400000  1
  H  H1290  1  0.25510000  0.25560000  0.07600000  1
  H  H1291  1  0.74490000  0.25560000  0.92400000  1
  H  H1292  1  0.74440000  0.92400000  0.25510000  1
  H  H1293  1  0.74440000  0.07600000  0.74490000  1
  H  H1294  1  0.25560000  0.92400000  0.74490000  1
  H  H1295  1  0.25560000  0.07600000  0.25510000  1
  H  H1296  1  0.19680000  0.43520000  0.23290000  1
  H  H1297  1  0.80320000  0.56480000  0.23290000  1
  H  H1298  1  0.80320000  0.43520000  0.76710000  1
  H  H1299  1  0.19680000  0.56480000  0.76710000  1
  H  H1300  1  0.23290000  0.19680000  0.43520000  1
  H  H1301  1  0.23290000  0.80320000  0.56480000  1
  H  H1302  1  0.76710000  0.80320000  0.43520000  1
  H  H1303  1  0.76710000  0.19680000  0.56480000  1
  H  H1304  1  0.43520000  0.23290000  0.19680000  1
  H  H1305  1  0.56480000  0.23290000  0.80320000  1
  H  H1306  1  0.43520000  0.76710000  0.80320000  1
  H  H1307  1  0.56480000  0.76710000  0.19680000  1
  H  H1308  1  0.43520000  0.19680000  0.76710000  1
  H  H1309  1  0.56480000  0.80320000  0.76710000  1
  H  H1310  1  0.43520000  0.80320000  0.23290000  1
  H  H1311  1  0.56480000  0.19680000  0.23290000  1
  H  H1312  1  0.19680000  0.23290000  0.56480000  1
  H  H1313  1  0.80320000  0.23290000  0.43520000  1
  H  H1314  1  0.80320000  0.76710000  0.56480000  1
  H  H1315  1  0.19680000  0.76710000  0.43520000  1
  H  H1316  1  0.23290000  0.43520000  0.80320000  1
  H  H1317  1  0.23290000  0.56480000  0.19680000  1
  H  H1318  1  0.76710000  0.43520000  0.19680000  1
  H  H1319  1  0.76710000  0.56480000  0.80320000  1
  H  H1320  1  0.69680000  0.93520000  0.73290000  1
  H  H1321  1  0.30320000  0.06480000  0.73290000  1
  H  H1322  1  0.30320000  0.93520000  0.26710000  1
  H  H1323  1  0.69680000  0.06480000  0.26710000  1
  H  H1324  1  0.73290000  0.69680000  0.93520000  1
  H  H1325  1  0.73290000  0.30320000  0.06480000  1
  H  H1326  1  0.26710000  0.30320000  0.93520000  1
  H  H1327  1  0.26710000  0.69680000  0.06480000  1
  H  H1328  1  0.93520000  0.73290000  0.69680000  1
  H  H1329  1  0.06480000  0.73290000  0.30320000  1
  H  H1330  1  0.93520000  0.26710000  0.30320000  1
  H  H1331  1  0.06480000  0.26710000  0.69680000  1
  H  H1332  1  0.93520000  0.69680000  0.26710000  1
  H  H1333  1  0.06480000  0.30320000  0.26710000  1
  H  H1334  1  0.93520000  0.30320000  0.73290000  1
  H  H1335  1  0.06480000  0.69680000  0.73290000  1
  H  H1336  1  0.69680000  0.73290000  0.06480000  1
  H  H1337  1  0.30320000  0.73290000  0.93520000  1
  H  H1338  1  0.30320000  0.26710000  0.06480000  1
  H  H1339  1  0.69680000  0.26710000  0.93520000  1
  H  H1340  1  0.73290000  0.93520000  0.30320000  1
  H  H1341  1  0.73290000  0.06480000  0.69680000  1
  H  H1342  1  0.26710000  0.93520000  0.69680000  1
  H  H1343  1  0.26710000  0.06480000  0.30320000  1
  H  H1344  1  0.80320000  0.56480000  0.76710000  1
  H  H1345  1  0.19680000  0.43520000  0.76710000  1
  H  H1346  1  0.19680000  0.56480000  0.23290000  1
  H  H1347  1  0.80320000  0.43520000  0.23290000  1
  H  H1348  1  0.76710000  0.80320000  0.56480000  1
  H  H1349  1  0.76710000  0.19680000  0.43520000  1
  H  H1350  1  0.23290000  0.19680000  0.56480000  1
  H  H1351  1  0.23290000  0.80320000  0.43520000  1
  H  H1352  1  0.56480000  0.76710000  0.80320000  1
  H  H1353  1  0.43520000  0.76710000  0.19680000  1
  H  H1354  1  0.56480000  0.23290000  0.19680000  1
  H  H1355  1  0.43520000  0.23290000  0.80320000  1
  H  H1356  1  0.56480000  0.80320000  0.23290000  1
  H  H1357  1  0.43520000  0.19680000  0.23290000  1
  H  H1358  1  0.56480000  0.19680000  0.76710000  1
  H  H1359  1  0.43520000  0.80320000  0.76710000  1
  H  H1360  1  0.80320000  0.76710000  0.43520000  1
  H  H1361  1  0.19680000  0.76710000  0.56480000  1
  H  H1362  1  0.19680000  0.23290000  0.43520000  1
  H  H1363  1  0.80320000  0.23290000  0.56480000  1
  H  H1364  1  0.76710000  0.56480000  0.19680000  1
  H  H1365  1  0.76710000  0.43520000  0.80320000  1
  H  H1366  1  0.23290000  0.56480000  0.80320000  1
  H  H1367  1  0.23290000  0.43520000  0.19680000  1
  H  H1368  1  0.30320000  0.06480000  0.26710000  1
  H  H1369  1  0.69680000  0.93520000  0.26710000  1
  H  H1370  1  0.69680000  0.06480000  0.73290000  1
  H  H1371  1  0.30320000  0.93520000  0.73290000  1
  H  H1372  1  0.26710000  0.30320000  0.06480000  1
  H  H1373  1  0.26710000  0.69680000  0.93520000  1
  H  H1374  1  0.73290000  0.69680000  0.06480000  1
  H  H1375  1  0.73290000  0.30320000  0.93520000  1
  H  H1376  1  0.06480000  0.26710000  0.30320000  1
  H  H1377  1  0.93520000  0.26710000  0.69680000  1
  H  H1378  1  0.06480000  0.73290000  0.69680000  1
  H  H1379  1  0.93520000  0.73290000  0.30320000  1
  H  H1380  1  0.06480000  0.30320000  0.73290000  1
  H  H1381  1  0.93520000  0.69680000  0.73290000  1
  H  H1382  1  0.06480000  0.69680000  0.26710000  1
  H  H1383  1  0.93520000  0.30320000  0.26710000  1
  H  H1384  1  0.30320000  0.26710000  0.93520000  1
  H  H1385  1  0.69680000  0.26710000  0.06480000  1
  H  H1386  1  0.69680000  0.73290000  0.93520000  1
  H  H1387  1  0.30320000  0.73290000  0.06480000  1
  H  H1388  1  0.26710000  0.06480000  0.69680000  1
  H  H1389  1  0.26710000  0.93520000  0.30320000  1
  H  H1390  1  0.73290000  0.06480000  0.30320000  1
  H  H1391  1  0.73290000  0.93520000  0.69680000  1
