# generated using pymatgen
data_CuH8(C9O2)2
_symmetry_space_group_name_H-M   'P 1'
_cell_length_a   37.29175098
_cell_length_b   37.29175098
_cell_length_c   37.29175098
_cell_angle_alpha   60.00000000
_cell_angle_beta   60.00000000
_cell_angle_gamma   60.00000000
_symmetry_Int_Tables_number   1
_chemical_formula_structural   CuH8(C9O2)2
_chemical_formula_sum   'Cu24 H192 C432 O96'
_cell_volume   36671.04859895
_cell_formula_units_Z   24
loop_
 _symmetry_equiv_pos_site_id
 _symmetry_equiv_pos_as_xyz
  1  'x, y, z'
loop_
 _atom_site_type_symbol
 _atom_site_label
 _atom_site_symmetry_multiplicity
 _atom_site_fract_x
 _atom_site_fract_y
 _atom_site_fract_z
 _atom_site_occupancy
  C  C576  1  0.57824840  0.71244800  0.21856860  1.0
  C  C577  1  0.78143140  0.42175160  0.50926500  1.0
  C  C578  1  0.49073500  0.21856860  0.71244800  1.0
  C  C579  1  0.28755200  0.50926500  0.42175160  1.0
  C  C580  1  0.78143140  0.50926500  0.28755200  1.0
  C  C581  1  0.71244800  0.57824840  0.49073500  1.0
  C  C582  1  0.50926500  0.78143140  0.42175160  1.0
  C  C583  1  0.50926500  0.42175160  0.28755200  1.0
  C  C584  1  0.21856860  0.49073500  0.57824840  1.0
  C  C585  1  0.28755200  0.78143140  0.50926500  1.0
  C  C586  1  0.71244800  0.21856860  0.57824840  1.0
  C  C587  1  0.21856860  0.57824840  0.71244800  1.0
  C  C588  1  0.49073500  0.71244800  0.57824840  1.0
  C  C589  1  0.21856860  0.71244800  0.49073500  1.0
  C  C590  1  0.71244800  0.49073500  0.21856860  1.0
  C  C591  1  0.49073500  0.57824840  0.21856860  1.0
  C  C592  1  0.57824840  0.49073500  0.71244800  1.0
  C  C593  1  0.57824840  0.21856860  0.49073500  1.0
  C  C594  1  0.50926500  0.28755200  0.78143140  1.0
  C  C595  1  0.42175160  0.78143140  0.28755200  1.0
  C  C596  1  0.42175160  0.28755200  0.50926500  1.0
  C  C597  1  0.28755200  0.42175160  0.78143140  1.0
  C  C598  1  0.42175160  0.50926500  0.78143140  1.0
  C  C599  1  0.78143140  0.28755200  0.42175160  1.0
  C  C672  1  0.42175160  0.28755200  0.78143140  1.0
  C  C673  1  0.21856860  0.57824840  0.49073500  1.0
  C  C674  1  0.50926500  0.78143140  0.28755200  1.0
  C  C675  1  0.71244800  0.49073500  0.57824840  1.0
  C  C676  1  0.21856860  0.49073500  0.71244800  1.0
  C  C677  1  0.28755200  0.42175160  0.50926500  1.0
  C  C678  1  0.49073500  0.21856860  0.57824840  1.0
  C  C679  1  0.49073500  0.57824840  0.71244800  1.0
  C  C680  1  0.78143140  0.50926500  0.42175160  1.0
  C  C681  1  0.71244800  0.21856860  0.49073500  1.0
  C  C682  1  0.28755200  0.78143140  0.42175160  1.0
  C  C683  1  0.78143140  0.42175160  0.28755200  1.0
  C  C684  1  0.50926500  0.28755200  0.42175160  1.0
  C  C685  1  0.78143140  0.28755200  0.50926500  1.0
  C  C686  1  0.28755200  0.50926500  0.78143140  1.0
  C  C687  1  0.50926500  0.42175160  0.78143140  1.0
  C  C688  1  0.42175160  0.50926500  0.28755200  1.0
  C  C689  1  0.42175160  0.78143140  0.50926500  1.0
  C  C690  1  0.49073500  0.71244800  0.21856860  1.0
  C  C691  1  0.57824840  0.21856860  0.71244800  1.0
  C  C692  1  0.57824840  0.71244800  0.49073500  1.0
  C  C693  1  0.71244800  0.57824840  0.21856860  1.0
  C  C694  1  0.57824840  0.49073500  0.21856860  1.0
  C  C695  1  0.21856860  0.71244800  0.57824840  1.0
  C  C768  1  0.64791000  0.64788620  0.21923000  1.0
  C  C769  1  0.78077000  0.35209000  0.51502620  1.0
  C  C770  1  0.48497380  0.21923000  0.64788620  1.0
  C  C771  1  0.35211380  0.51502620  0.35209000  1.0
  C  C772  1  0.78077000  0.51502620  0.35211380  1.0
  C  C773  1  0.64788620  0.64791000  0.48497380  1.0
  C  C774  1  0.51502620  0.78077000  0.35209000  1.0
  C  C775  1  0.51502620  0.35209000  0.35211380  1.0
  C  C776  1  0.21923000  0.48497380  0.64791000  1.0
  C  C777  1  0.35211380  0.78077000  0.51502620  1.0
  C  C778  1  0.64788620  0.21923000  0.64791000  1.0
  C  C779  1  0.21923000  0.64791000  0.64788620  1.0
  C  C780  1  0.48497380  0.64788620  0.64791000  1.0
  C  C781  1  0.21923000  0.64788620  0.48497380  1.0
  C  C782  1  0.64788620  0.48497380  0.21923000  1.0
  C  C783  1  0.48497380  0.64791000  0.21923000  1.0
  C  C784  1  0.64791000  0.48497380  0.64788620  1.0
  C  C785  1  0.64791000  0.21923000  0.48497380  1.0
  C  C786  1  0.51502620  0.35211380  0.78077000  1.0
  C  C787  1  0.35209000  0.78077000  0.35211380  1.0
  C  C788  1  0.35209000  0.35211380  0.51502620  1.0
  C  C789  1  0.35211380  0.35209000  0.78077000  1.0
  C  C790  1  0.35209000  0.51502620  0.78077000  1.0
  C  C791  1  0.78077000  0.35211380  0.35209000  1.0
  C  C960  1  0.62523630  0.69196010  0.20179990  1.0
  C  C961  1  0.79820010  0.37476370  0.51899630  1.0
  C  C962  1  0.48100370  0.20179990  0.69196010  1.0
  C  C963  1  0.30803990  0.51899630  0.37476370  1.0
  C  C964  1  0.79820010  0.51899630  0.30803990  1.0
  C  C965  1  0.69196010  0.62523630  0.48100370  1.0
  C  C966  1  0.51899630  0.79820010  0.37476370  1.0
  C  C967  1  0.51899630  0.37476370  0.30803990  1.0
  C  C968  1  0.20179990  0.48100370  0.62523630  1.0
  C  C969  1  0.30803990  0.79820010  0.51899630  1.0
  C  C970  1  0.69196010  0.20179990  0.62523630  1.0
  C  C971  1  0.20179990  0.62523630  0.69196010  1.0
  C  C972  1  0.48100370  0.69196010  0.62523630  1.0
  C  C973  1  0.20179990  0.69196010  0.48100370  1.0
  C  C974  1  0.69196010  0.48100370  0.20179990  1.0
  C  C975  1  0.48100370  0.62523630  0.20179990  1.0
  C  C976  1  0.62523630  0.48100370  0.69196010  1.0
  C  C977  1  0.62523630  0.20179990  0.48100370  1.0
  C  C978  1  0.51899630  0.30803990  0.79820010  1.0
  C  C979  1  0.37476370  0.79820010  0.30803990  1.0
  C  C980  1  0.37476370  0.30803990  0.51899630  1.0
  C  C981  1  0.30803990  0.37476370  0.79820010  1.0
  C  C982  1  0.37476370  0.51899630  0.79820010  1.0
  C  C983  1  0.79820010  0.30803990  0.37476370  1.0
  C  C1056  1  0.37476370  0.30803990  0.79820010  1.0
  C  C1057  1  0.20179990  0.62523630  0.48100370  1.0
  C  C1058  1  0.51899630  0.79820010  0.30803990  1.0
  C  C1059  1  0.69196010  0.48100370  0.62523630  1.0
  C  C1060  1  0.20179990  0.48100370  0.69196010  1.0
  C  C1061  1  0.30803990  0.37476370  0.51899630  1.0
  C  C1062  1  0.48100370  0.20179990  0.62523630  1.0
  C  C1063  1  0.48100370  0.62523630  0.69196010  1.0
  C  C1064  1  0.79820010  0.51899630  0.37476370  1.0
  C  C1065  1  0.69196010  0.20179990  0.48100370  1.0
  C  C1066  1  0.30803990  0.79820010  0.37476370  1.0
  C  C1067  1  0.79820010  0.37476370  0.30803990  1.0
  C  C1068  1  0.51899630  0.30803990  0.37476370  1.0
  C  C1069  1  0.79820010  0.30803990  0.51899630  1.0
  C  C1070  1  0.30803990  0.51899630  0.79820010  1.0
  C  C1071  1  0.51899630  0.37476370  0.79820010  1.0
  C  C1072  1  0.37476370  0.51899630  0.30803990  1.0
  C  C1073  1  0.37476370  0.79820010  0.51899630  1.0
  C  C1074  1  0.48100370  0.69196010  0.20179990  1.0
  C  C1075  1  0.62523630  0.20179990  0.69196010  1.0
  C  C1076  1  0.62523630  0.69196010  0.48100370  1.0
  C  C1077  1  0.69196010  0.62523630  0.20179990  1.0
  C  C1078  1  0.62523630  0.48100370  0.20179990  1.0
  C  C1079  1  0.20179990  0.69196010  0.62523630  1.0
  C  C1152  1  0.64787000  0.71567000  0.16147000  1.0
  C  C1153  1  0.83853000  0.35213000  0.52501000  1.0
  C  C1154  1  0.47499000  0.16147000  0.71567000  1.0
  C  C1155  1  0.28433000  0.52501000  0.35213000  1.0
  C  C1156  1  0.83853000  0.52501000  0.28433000  1.0
  C  C1157  1  0.71567000  0.64787000  0.47499000  1.0
  C  C1158  1  0.52501000  0.83853000  0.35213000  1.0
  C  C1159  1  0.52501000  0.35213000  0.28433000  1.0
  C  C1160  1  0.16147000  0.47499000  0.64787000  1.0
  C  C1161  1  0.28433000  0.83853000  0.52501000  1.0
  C  C1162  1  0.71567000  0.16147000  0.64787000  1.0
  C  C1163  1  0.16147000  0.64787000  0.71567000  1.0
  C  C1164  1  0.47499000  0.71567000  0.64787000  1.0
  C  C1165  1  0.16147000  0.71567000  0.47499000  1.0
  C  C1166  1  0.71567000  0.47499000  0.16147000  1.0
  C  C1167  1  0.47499000  0.64787000  0.16147000  1.0
  C  C1168  1  0.64787000  0.47499000  0.71567000  1.0
  C  C1169  1  0.64787000  0.16147000  0.47499000  1.0
  C  C1170  1  0.52501000  0.28433000  0.83853000  1.0
  C  C1171  1  0.35213000  0.83853000  0.28433000  1.0
  C  C1172  1  0.35213000  0.28433000  0.52501000  1.0
  C  C1173  1  0.28433000  0.35213000  0.83853000  1.0
  C  C1174  1  0.35213000  0.52501000  0.83853000  1.0
  C  C1175  1  0.83853000  0.28433000  0.35213000  1.0
  C  C1248  1  0.35213000  0.28433000  0.83853000  1.0
  C  C1249  1  0.16147000  0.64787000  0.47499000  1.0
  C  C1250  1  0.52501000  0.83853000  0.28433000  1.0
  C  C1251  1  0.71567000  0.47499000  0.64787000  1.0
  C  C1252  1  0.16147000  0.47499000  0.71567000  1.0
  C  C1253  1  0.28433000  0.35213000  0.52501000  1.0
  C  C1254  1  0.47499000  0.16147000  0.64787000  1.0
  C  C1255  1  0.47499000  0.64787000  0.71567000  1.0
  C  C1256  1  0.83853000  0.52501000  0.35213000  1.0
  C  C1257  1  0.71567000  0.16147000  0.47499000  1.0
  C  C1258  1  0.28433000  0.83853000  0.35213000  1.0
  C  C1259  1  0.83853000  0.35213000  0.28433000  1.0
  C  C1260  1  0.52501000  0.28433000  0.35213000  1.0
  C  C1261  1  0.83853000  0.28433000  0.52501000  1.0
  C  C1262  1  0.28433000  0.52501000  0.83853000  1.0
  C  C1263  1  0.52501000  0.35213000  0.83853000  1.0
  C  C1264  1  0.35213000  0.52501000  0.28433000  1.0
  C  C1265  1  0.35213000  0.83853000  0.52501000  1.0
  C  C1266  1  0.47499000  0.71567000  0.16147000  1.0
  C  C1267  1  0.64787000  0.16147000  0.71567000  1.0
  C  C1268  1  0.64787000  0.71567000  0.47499000  1.0
  C  C1269  1  0.71567000  0.64787000  0.16147000  1.0
  C  C1270  1  0.64787000  0.47499000  0.16147000  1.0
  C  C1271  1  0.16147000  0.71567000  0.64787000  1.0
  C  C1536  1  0.69176000  0.69178000  0.14376000  1.0
  C  C1537  1  0.85624000  0.30824000  0.52730000  1.0
  C  C1538  1  0.47270000  0.14376000  0.69178000  1.0
  C  C1539  1  0.30822000  0.52730000  0.30824000  1.0
  C  C1540  1  0.85624000  0.52730000  0.30822000  1.0
  C  C1541  1  0.69178000  0.69176000  0.47270000  1.0
  C  C1542  1  0.52730000  0.85624000  0.30824000  1.0
  C  C1543  1  0.52730000  0.30824000  0.30822000  1.0
  C  C1544  1  0.14376000  0.47270000  0.69176000  1.0
  C  C1545  1  0.30822000  0.85624000  0.52730000  1.0
  C  C1546  1  0.69178000  0.14376000  0.69176000  1.0
  C  C1547  1  0.14376000  0.69176000  0.69178000  1.0
  C  C1548  1  0.47270000  0.69178000  0.69176000  1.0
  C  C1549  1  0.14376000  0.69178000  0.47270000  1.0
  C  C1550  1  0.69178000  0.47270000  0.14376000  1.0
  C  C1551  1  0.47270000  0.69176000  0.14376000  1.0
  C  C1552  1  0.69176000  0.47270000  0.69178000  1.0
  C  C1553  1  0.69176000  0.14376000  0.47270000  1.0
  C  C1554  1  0.52730000  0.30822000  0.85624000  1.0
  C  C1555  1  0.30824000  0.85624000  0.30822000  1.0
  C  C1556  1  0.30824000  0.30822000  0.52730000  1.0
  C  C1557  1  0.30822000  0.30824000  0.85624000  1.0
  C  C1558  1  0.30824000  0.52730000  0.85624000  1.0
  C  C1559  1  0.85624000  0.30822000  0.30824000  1.0
  C  C1632  1  0.71664000  0.71664000  0.09964000  1.0
  C  C1633  1  0.90036000  0.28336000  0.53292000  1.0
  C  C1634  1  0.46708000  0.09964000  0.71664000  1.0
  C  C1635  1  0.28336000  0.53292000  0.28336000  1.0
  C  C1636  1  0.90036000  0.53292000  0.28336000  1.0
  C  C1637  1  0.71664000  0.71664000  0.46708000  1.0
  C  C1638  1  0.53292000  0.90036000  0.28336000  1.0
  C  C1639  1  0.53292000  0.28336000  0.28336000  1.0
  C  C1640  1  0.09964000  0.46708000  0.71664000  1.0
  C  C1641  1  0.28336000  0.90036000  0.53292000  1.0
  C  C1642  1  0.71664000  0.09964000  0.71664000  1.0
  C  C1643  1  0.09964000  0.71664000  0.71664000  1.0
  C  C1644  1  0.46708000  0.71664000  0.71664000  1.0
  C  C1645  1  0.09964000  0.71664000  0.46708000  1.0
  C  C1646  1  0.71664000  0.46708000  0.09964000  1.0
  C  C1647  1  0.46708000  0.71664000  0.09964000  1.0
  C  C1648  1  0.71664000  0.46708000  0.71664000  1.0
  C  C1649  1  0.71664000  0.09964000  0.46708000  1.0
  C  C1650  1  0.53292000  0.28336000  0.90036000  1.0
  C  C1651  1  0.28336000  0.90036000  0.28336000  1.0
  C  C1652  1  0.28336000  0.28336000  0.53292000  1.0
  C  C1653  1  0.28336000  0.28336000  0.90036000  1.0
  C  C1654  1  0.28336000  0.53292000  0.90036000  1.0
  C  C1655  1  0.90036000  0.28336000  0.28336000  1.0
  C  C1728  1  0.73824000  0.73834000  0.06704000  1.0
  C  C1729  1  0.93296000  0.26176000  0.54362000  1.0
  C  C1730  1  0.45638000  0.06704000  0.73834000  1.0
  C  C1731  1  0.26166000  0.54362000  0.26176000  1.0
  C  C1732  1  0.93296000  0.54362000  0.26166000  1.0
  C  C1733  1  0.73834000  0.73824000  0.45638000  1.0
  C  C1734  1  0.54362000  0.93296000  0.26176000  1.0
  C  C1735  1  0.54362000  0.26176000  0.26166000  1.0
  C  C1736  1  0.06704000  0.45638000  0.73824000  1.0
  C  C1737  1  0.26166000  0.93296000  0.54362000  1.0
  C  C1738  1  0.73834000  0.06704000  0.73824000  1.0
  C  C1739  1  0.06704000  0.73824000  0.73834000  1.0
  C  C1740  1  0.45638000  0.73834000  0.73824000  1.0
  C  C1741  1  0.06704000  0.73834000  0.45638000  1.0
  C  C1742  1  0.73834000  0.45638000  0.06704000  1.0
  C  C1743  1  0.45638000  0.73824000  0.06704000  1.0
  C  C1744  1  0.73824000  0.45638000  0.73834000  1.0
  C  C1745  1  0.73824000  0.06704000  0.45638000  1.0
  C  C1746  1  0.54362000  0.26166000  0.93296000  1.0
  C  C1747  1  0.26176000  0.93296000  0.26166000  1.0
  C  C1748  1  0.26176000  0.26166000  0.54362000  1.0
  C  C1749  1  0.26166000  0.26176000  0.93296000  1.0
  C  C1750  1  0.26176000  0.54362000  0.93296000  1.0
  C  C1751  1  0.93296000  0.26166000  0.26176000  1.0
  C  C1824  1  0.76434000  0.76440000  0.02534000  1.0
  C  C1825  1  0.97466000  0.23566000  0.55408000  1.0
  C  C1826  1  0.44592000  0.02534000  0.76440000  1.0
  C  C1827  1  0.23560000  0.55408000  0.23566000  1.0
  C  C1828  1  0.97466000  0.55408000  0.23560000  1.0
  C  C1829  1  0.76440000  0.76434000  0.44592000  1.0
  C  C1830  1  0.55408000  0.97466000  0.23566000  1.0
  C  C1831  1  0.55408000  0.23566000  0.23560000  1.0
  C  C1832  1  0.02534000  0.44592000  0.76434000  1.0
  C  C1833  1  0.23560000  0.97466000  0.55408000  1.0
  C  C1834  1  0.76440000  0.02534000  0.76434000  1.0
  C  C1835  1  0.02534000  0.76434000  0.76440000  1.0
  C  C1836  1  0.44592000  0.76440000  0.76434000  1.0
  C  C1837  1  0.02534000  0.76440000  0.44592000  1.0
  C  C1838  1  0.76440000  0.44592000  0.02534000  1.0
  C  C1839  1  0.44592000  0.76434000  0.02534000  1.0
  C  C1840  1  0.76434000  0.44592000  0.76440000  1.0
  C  C1841  1  0.76434000  0.02534000  0.44592000  1.0
  C  C1842  1  0.55408000  0.23560000  0.97466000  1.0
  C  C1843  1  0.23566000  0.97466000  0.23560000  1.0
  C  C1844  1  0.23566000  0.23560000  0.55408000  1.0
  C  C1845  1  0.23560000  0.23566000  0.97466000  1.0
  C  C1846  1  0.23566000  0.55408000  0.97466000  1.0
  C  C1847  1  0.97466000  0.23560000  0.23566000  1.0
  C  C1920  1  0.79234000  0.73998000  0.99694000  1.0
  C  C1921  1  0.00306000  0.20766000  0.52926000  1.0
  C  C1922  1  0.47074000  0.99694000  0.73998000  1.0
  C  C1923  1  0.26002000  0.52926000  0.20766000  1.0
  C  C1924  1  0.00306000  0.52926000  0.26002000  1.0
  C  C1925  1  0.73998000  0.79234000  0.47074000  1.0
  C  C1926  1  0.52926000  0.00306000  0.20766000  1.0
  C  C1927  1  0.52926000  0.20766000  0.26002000  1.0
  C  C1928  1  0.99694000  0.47074000  0.79234000  1.0
  C  C1929  1  0.26002000  0.00306000  0.52926000  1.0
  C  C1930  1  0.73998000  0.99694000  0.79234000  1.0
  C  C1931  1  0.99694000  0.79234000  0.73998000  1.0
  C  C1932  1  0.47074000  0.73998000  0.79234000  1.0
  C  C1933  1  0.99694000  0.73998000  0.47074000  1.0
  C  C1934  1  0.73998000  0.47074000  0.99694000  1.0
  C  C1935  1  0.47074000  0.79234000  0.99694000  1.0
  C  C1936  1  0.79234000  0.47074000  0.73998000  1.0
  C  C1937  1  0.79234000  0.99694000  0.47074000  1.0
  C  C1938  1  0.52926000  0.26002000  0.00306000  1.0
  C  C1939  1  0.20766000  0.00306000  0.26002000  1.0
  C  C1940  1  0.20766000  0.26002000  0.52926000  1.0
  C  C1941  1  0.26002000  0.20766000  0.00306000  1.0
  C  C1942  1  0.20766000  0.52926000  0.00306000  1.0
  C  C1943  1  0.00306000  0.26002000  0.20766000  1.0
  C  C2016  1  0.20766000  0.26002000  0.00306000  1.0
  C  C2017  1  0.99694000  0.79234000  0.47074000  1.0
  C  C2018  1  0.52926000  0.00306000  0.26002000  1.0
  C  C2019  1  0.73998000  0.47074000  0.79234000  1.0
  C  C2020  1  0.99694000  0.47074000  0.73998000  1.0
  C  C2021  1  0.26002000  0.20766000  0.52926000  1.0
  C  C2022  1  0.47074000  0.99694000  0.79234000  1.0
  C  C2023  1  0.47074000  0.79234000  0.73998000  1.0
  C  C2024  1  0.00306000  0.52926000  0.20766000  1.0
  C  C2025  1  0.73998000  0.99694000  0.47074000  1.0
  C  C2026  1  0.26002000  0.00306000  0.20766000  1.0
  C  C2027  1  0.00306000  0.20766000  0.26002000  1.0
  C  C2028  1  0.52926000  0.26002000  0.20766000  1.0
  C  C2029  1  0.00306000  0.26002000  0.52926000  1.0
  C  C2030  1  0.26002000  0.52926000  0.00306000  1.0
  C  C2031  1  0.52926000  0.20766000  0.00306000  1.0
  C  C2032  1  0.20766000  0.52926000  0.26002000  1.0
  C  C2033  1  0.20766000  0.00306000  0.52926000  1.0
  C  C2034  1  0.47074000  0.73998000  0.99694000  1.0
  C  C2035  1  0.79234000  0.99694000  0.73998000  1.0
  C  C2036  1  0.79234000  0.73998000  0.47074000  1.0
  C  C2037  1  0.73998000  0.79234000  0.99694000  1.0
  C  C2038  1  0.79234000  0.47074000  0.99694000  1.0
  C  C2039  1  0.99694000  0.73998000  0.79234000  1.0
  C  C2304  1  0.81442000  0.76226000  0.95268000  1.0
  C  C2305  1  0.04732000  0.18558000  0.52936000  1.0
  C  C2306  1  0.47064000  0.95268000  0.76226000  1.0
  C  C2307  1  0.23774000  0.52936000  0.18558000  1.0
  C  C2308  1  0.04732000  0.52936000  0.23774000  1.0
  C  C2309  1  0.76226000  0.81442000  0.47064000  1.0
  C  C2310  1  0.52936000  0.04732000  0.18558000  1.0
  C  C2311  1  0.52936000  0.18558000  0.23774000  1.0
  C  C2312  1  0.95268000  0.47064000  0.81442000  1.0
  C  C2313  1  0.23774000  0.04732000  0.52936000  1.0
  C  C2314  1  0.76226000  0.95268000  0.81442000  1.0
  C  C2315  1  0.95268000  0.81442000  0.76226000  1.0
  C  C2316  1  0.47064000  0.76226000  0.81442000  1.0
  C  C2317  1  0.95268000  0.76226000  0.47064000  1.0
  C  C2318  1  0.76226000  0.47064000  0.95268000  1.0
  C  C2319  1  0.47064000  0.81442000  0.95268000  1.0
  C  C2320  1  0.81442000  0.47064000  0.76226000  1.0
  C  C2321  1  0.81442000  0.95268000  0.47064000  1.0
  C  C2322  1  0.52936000  0.23774000  0.04732000  1.0
  C  C2323  1  0.18558000  0.04732000  0.23774000  1.0
  C  C2324  1  0.18558000  0.23774000  0.52936000  1.0
  C  C2325  1  0.23774000  0.18558000  0.04732000  1.0
  C  C2326  1  0.18558000  0.52936000  0.04732000  1.0
  C  C2327  1  0.04732000  0.23774000  0.18558000  1.0
  C  C2400  1  0.18558000  0.23774000  0.04732000  1.0
  C  C2401  1  0.95268000  0.81442000  0.47064000  1.0
  C  C2402  1  0.52936000  0.04732000  0.23774000  1.0
  C  C2403  1  0.76226000  0.47064000  0.81442000  1.0
  C  C2404  1  0.95268000  0.47064000  0.76226000  1.0
  C  C2405  1  0.23774000  0.18558000  0.52936000  1.0
  C  C2406  1  0.47064000  0.95268000  0.81442000  1.0
  C  C2407  1  0.47064000  0.81442000  0.76226000  1.0
  C  C2408  1  0.04732000  0.52936000  0.18558000  1.0
  C  C2409  1  0.76226000  0.95268000  0.47064000  1.0
  C  C2410  1  0.23774000  0.04732000  0.18558000  1.0
  C  C2411  1  0.04732000  0.18558000  0.23774000  1.0
  C  C2412  1  0.52936000  0.23774000  0.18558000  1.0
  C  C2413  1  0.04732000  0.23774000  0.52936000  1.0
  C  C2414  1  0.23774000  0.52936000  0.04732000  1.0
  C  C2415  1  0.52936000  0.18558000  0.04732000  1.0
  C  C2416  1  0.18558000  0.52936000  0.23774000  1.0
  C  C2417  1  0.18558000  0.04732000  0.52936000  1.0
  C  C2418  1  0.47064000  0.76226000  0.95268000  1.0
  C  C2419  1  0.81442000  0.95268000  0.76226000  1.0
  C  C2420  1  0.81442000  0.76226000  0.47064000  1.0
  C  C2421  1  0.76226000  0.81442000  0.95268000  1.0
  C  C2422  1  0.81442000  0.47064000  0.95268000  1.0
  C  C2423  1  0.95268000  0.76226000  0.81442000  1.0
  C  C2688  1  0.80724000  0.80730000  0.93964000  1.0
  C  C2689  1  0.06036000  0.19276000  0.55418000  1.0
  C  C2690  1  0.44582000  0.93964000  0.80730000  1.0
  C  C2691  1  0.19270000  0.55418000  0.19276000  1.0
  C  C2692  1  0.06036000  0.55418000  0.19270000  1.0
  C  C2693  1  0.80730000  0.80724000  0.44582000  1.0
  C  C2694  1  0.55418000  0.06036000  0.19276000  1.0
  C  C2695  1  0.55418000  0.19276000  0.19270000  1.0
  C  C2696  1  0.93964000  0.44582000  0.80724000  1.0
  C  C2697  1  0.19270000  0.06036000  0.55418000  1.0
  C  C2698  1  0.80730000  0.93964000  0.80724000  1.0
  C  C2699  1  0.93964000  0.80724000  0.80730000  1.0
  C  C2700  1  0.44582000  0.80730000  0.80724000  1.0
  C  C2701  1  0.93964000  0.80730000  0.44582000  1.0
  C  C2702  1  0.80730000  0.44582000  0.93964000  1.0
  C  C2703  1  0.44582000  0.80724000  0.93964000  1.0
  C  C2704  1  0.80724000  0.44582000  0.80730000  1.0
  C  C2705  1  0.80724000  0.93964000  0.44582000  1.0
  C  C2706  1  0.55418000  0.19270000  0.06036000  1.0
  C  C2707  1  0.19276000  0.06036000  0.19270000  1.0
  C  C2708  1  0.19276000  0.19270000  0.55418000  1.0
  C  C2709  1  0.19270000  0.19276000  0.06036000  1.0
  C  C2710  1  0.19276000  0.55418000  0.06036000  1.0
  C  C2711  1  0.06036000  0.19270000  0.19276000  1.0
  C  C2784  1  0.83014000  0.83020000  0.89374000  1.0
  C  C2785  1  0.10626000  0.16986000  0.55408000  1.0
  C  C2786  1  0.44592000  0.89374000  0.83020000  1.0
  C  C2787  1  0.16980000  0.55408000  0.16986000  1.0
  C  C2788  1  0.10626000  0.55408000  0.16980000  1.0
  C  C2789  1  0.83020000  0.83014000  0.44592000  1.0
  C  C2790  1  0.55408000  0.10626000  0.16986000  1.0
  C  C2791  1  0.55408000  0.16986000  0.16980000  1.0
  C  C2792  1  0.89374000  0.44592000  0.83014000  1.0
  C  C2793  1  0.16980000  0.10626000  0.55408000  1.0
  C  C2794  1  0.83020000  0.89374000  0.83014000  1.0
  C  C2795  1  0.89374000  0.83014000  0.83020000  1.0
  C  C2796  1  0.44592000  0.83020000  0.83014000  1.0
  C  C2797  1  0.89374000  0.83020000  0.44592000  1.0
  C  C2798  1  0.83020000  0.44592000  0.89374000  1.0
  C  C2799  1  0.44592000  0.83014000  0.89374000  1.0
  C  C2800  1  0.83014000  0.44592000  0.83020000  1.0
  C  C2801  1  0.83014000  0.89374000  0.44592000  1.0
  C  C2802  1  0.55408000  0.16980000  0.10626000  1.0
  C  C2803  1  0.16986000  0.10626000  0.16980000  1.0
  C  C2804  1  0.16986000  0.16980000  0.55408000  1.0
  C  C2805  1  0.16980000  0.16986000  0.10626000  1.0
  C  C2806  1  0.16986000  0.55408000  0.10626000  1.0
  C  C2807  1  0.10626000  0.16980000  0.16986000  1.0
  C  C2880  1  0.87288000  0.80846000  0.87286000  1.0
  C  C2881  1  0.12714000  0.12712000  0.55420000  1.0
  C  C2882  1  0.44580000  0.87286000  0.80846000  1.0
  C  C2883  1  0.19154000  0.55420000  0.12712000  1.0
  C  C2884  1  0.12714000  0.55420000  0.19154000  1.0
  C  C2885  1  0.80846000  0.87288000  0.44580000  1.0
  C  C2886  1  0.55420000  0.12714000  0.12712000  1.0
  C  C2887  1  0.55420000  0.12712000  0.19154000  1.0
  C  C2888  1  0.87286000  0.44580000  0.87288000  1.0
  C  C2889  1  0.19154000  0.12714000  0.55420000  1.0
  C  C2890  1  0.80846000  0.87286000  0.87288000  1.0
  C  C2891  1  0.87286000  0.87288000  0.80846000  1.0
  C  C2892  1  0.44580000  0.80846000  0.87288000  1.0
  C  C2893  1  0.87286000  0.80846000  0.44580000  1.0
  C  C2894  1  0.80846000  0.44580000  0.87286000  1.0
  C  C2895  1  0.44580000  0.87288000  0.87286000  1.0
  C  C2896  1  0.87288000  0.44580000  0.80846000  1.0
  C  C2897  1  0.87288000  0.87286000  0.44580000  1.0
  C  C2898  1  0.55420000  0.19154000  0.12714000  1.0
  C  C2899  1  0.12712000  0.12714000  0.19154000  1.0
  C  C2900  1  0.12712000  0.19154000  0.55420000  1.0
  C  C2901  1  0.19154000  0.12712000  0.12714000  1.0
  C  C2902  1  0.12712000  0.55420000  0.12714000  1.0
  C  C2903  1  0.12714000  0.19154000  0.12712000  1.0
  Cu  Cu0  1  0.50000075  0.71204625  0.28795225  1.0
  Cu  Cu1  1  0.71204775  0.49999925  0.49999925  1.0
  Cu  Cu2  1  0.50000075  0.28795225  0.71204625  1.0
  Cu  Cu3  1  0.28795375  0.49999925  0.49999925  1.0
  Cu  Cu4  1  0.71204625  0.50000075  0.28795225  1.0
  Cu  Cu6  1  0.49999925  0.71204775  0.49999925  1.0
  Cu  Cu7  1  0.49999925  0.49999925  0.28795375  1.0
  Cu  Cu9  1  0.28795225  0.71204625  0.50000075  1.0
  Cu  Cu10  1  0.71204625  0.28795225  0.50000075  1.0
  Cu  Cu11  1  0.28795225  0.50000075  0.71204625  1.0
  Cu  Cu16  1  0.49999925  0.49999925  0.71204775  1.0
  Cu  Cu17  1  0.49999925  0.28795375  0.49999925  1.0
  Cu  Cu48  1  0.50000075  0.78217625  0.21782225  1.0
  Cu  Cu49  1  0.78217775  0.49999925  0.49999925  1.0
  Cu  Cu50  1  0.50000075  0.21782225  0.78217625  1.0
  Cu  Cu51  1  0.21782375  0.49999925  0.49999925  1.0
  Cu  Cu52  1  0.78217625  0.50000075  0.21782225  1.0
  Cu  Cu54  1  0.49999925  0.78217775  0.49999925  1.0
  Cu  Cu55  1  0.49999925  0.49999925  0.21782375  1.0
  Cu  Cu57  1  0.21782225  0.78217625  0.50000075  1.0
  Cu  Cu58  1  0.78217625  0.21782225  0.50000075  1.0
  Cu  Cu59  1  0.21782225  0.50000075  0.78217625  1.0
  Cu  Cu64  1  0.49999925  0.49999925  0.78217775  1.0
  Cu  Cu65  1  0.49999925  0.21782375  0.49999925  1.0
  H  H864  1  0.63150000  0.63150000  0.24610000  1.0
  H  H865  1  0.75390000  0.36850000  0.50910000  1.0
  H  H866  1  0.49090000  0.24610000  0.63150000  1.0
  H  H867  1  0.36850000  0.50910000  0.36850000  1.0
  H  H868  1  0.75390000  0.50910000  0.36850000  1.0
  H  H869  1  0.63150000  0.63150000  0.49090000  1.0
  H  H870  1  0.50910000  0.75390000  0.36850000  1.0
  H  H871  1  0.50910000  0.36850000  0.36850000  1.0
  H  H872  1  0.24610000  0.49090000  0.63150000  1.0
  H  H873  1  0.36850000  0.75390000  0.50910000  1.0
  H  H874  1  0.63150000  0.24610000  0.63150000  1.0
  H  H875  1  0.24610000  0.63150000  0.63150000  1.0
  H  H876  1  0.49090000  0.63150000  0.63150000  1.0
  H  H877  1  0.24610000  0.63150000  0.49090000  1.0
  H  H878  1  0.63150000  0.49090000  0.24610000  1.0
  H  H879  1  0.49090000  0.63150000  0.24610000  1.0
  H  H880  1  0.63150000  0.49090000  0.63150000  1.0
  H  H881  1  0.63150000  0.24610000  0.49090000  1.0
  H  H882  1  0.50910000  0.36850000  0.75390000  1.0
  H  H883  1  0.36850000  0.75390000  0.36850000  1.0
  H  H884  1  0.36850000  0.36850000  0.50910000  1.0
  H  H885  1  0.36850000  0.36850000  0.75390000  1.0
  H  H886  1  0.36850000  0.50910000  0.75390000  1.0
  H  H887  1  0.75390000  0.36850000  0.36850000  1.0
  H  H1344  1  0.63490000  0.74590000  0.14690000  1.0
  H  H1345  1  0.85310000  0.36510000  0.52770000  1.0
  H  H1346  1  0.47230000  0.14690000  0.74590000  1.0
  H  H1347  1  0.25410000  0.52770000  0.36510000  1.0
  H  H1348  1  0.85310000  0.52770000  0.25410000  1.0
  H  H1349  1  0.74590000  0.63490000  0.47230000  1.0
  H  H1350  1  0.52770000  0.85310000  0.36510000  1.0
  H  H1351  1  0.52770000  0.36510000  0.25410000  1.0
  H  H1352  1  0.14690000  0.47230000  0.63490000  1.0
  H  H1353  1  0.25410000  0.85310000  0.52770000  1.0
  H  H1354  1  0.74590000  0.14690000  0.63490000  1.0
  H  H1355  1  0.14690000  0.63490000  0.74590000  1.0
  H  H1356  1  0.47230000  0.74590000  0.63490000  1.0
  H  H1357  1  0.14690000  0.74590000  0.47230000  1.0
  H  H1358  1  0.74590000  0.47230000  0.14690000  1.0
  H  H1359  1  0.47230000  0.63490000  0.14690000  1.0
  H  H1360  1  0.63490000  0.47230000  0.74590000  1.0
  H  H1361  1  0.63490000  0.14690000  0.47230000  1.0
  H  H1362  1  0.52770000  0.25410000  0.85310000  1.0
  H  H1363  1  0.36510000  0.85310000  0.25410000  1.0
  H  H1364  1  0.36510000  0.25410000  0.52770000  1.0
  H  H1365  1  0.25410000  0.36510000  0.85310000  1.0
  H  H1366  1  0.36510000  0.52770000  0.85310000  1.0
  H  H1367  1  0.85310000  0.25410000  0.36510000  1.0
  H  H1440  1  0.36510000  0.25410000  0.85310000  1.0
  H  H1441  1  0.14690000  0.63490000  0.47230000  1.0
  H  H1442  1  0.52770000  0.85310000  0.25410000  1.0
  H  H1443  1  0.74590000  0.47230000  0.63490000  1.0
  H  H1444  1  0.14690000  0.47230000  0.74590000  1.0
  H  H1445  1  0.25410000  0.36510000  0.52770000  1.0
  H  H1446  1  0.47230000  0.14690000  0.63490000  1.0
  H  H1447  1  0.47230000  0.63490000  0.74590000  1.0
  H  H1448  1  0.85310000  0.52770000  0.36510000  1.0
  H  H1449  1  0.74590000  0.14690000  0.47230000  1.0
  H  H1450  1  0.25410000  0.85310000  0.36510000  1.0
  H  H1451  1  0.85310000  0.36510000  0.25410000  1.0
  H  H1452  1  0.52770000  0.25410000  0.36510000  1.0
  H  H1453  1  0.85310000  0.25410000  0.52770000  1.0
  H  H1454  1  0.25410000  0.52770000  0.85310000  1.0
  H  H1455  1  0.52770000  0.36510000  0.85310000  1.0
  H  H1456  1  0.36510000  0.52770000  0.25410000  1.0
  H  H1457  1  0.36510000  0.85310000  0.52770000  1.0
  H  H1458  1  0.47230000  0.74590000  0.14690000  1.0
  H  H1459  1  0.63490000  0.14690000  0.74590000  1.0
  H  H1460  1  0.63490000  0.74590000  0.47230000  1.0
  H  H1461  1  0.74590000  0.63490000  0.14690000  1.0
  H  H1462  1  0.63490000  0.47230000  0.14690000  1.0
  H  H1463  1  0.14690000  0.74590000  0.63490000  1.0
  H  H2112  1  0.79680000  0.70960000  0.00540000  1.0
  H  H2113  1  0.99460000  0.20320000  0.51180000  1.0
  H  H2114  1  0.48820000  0.00540000  0.70960000  1.0
  H  H2115  1  0.29040000  0.51180000  0.20320000  1.0
  H  H2116  1  0.99460000  0.51180000  0.29040000  1.0
  H  H2117  1  0.70960000  0.79680000  0.48820000  1.0
  H  H2118  1  0.51180000  0.99460000  0.20320000  1.0
  H  H2119  1  0.51180000  0.20320000  0.29040000  1.0
  H  H2120  1  0.00540000  0.48820000  0.79680000  1.0
  H  H2121  1  0.29040000  0.99460000  0.51180000  1.0
  H  H2122  1  0.70960000  0.00540000  0.79680000  1.0
  H  H2123  1  0.00540000  0.79680000  0.70960000  1.0
  H  H2124  1  0.48820000  0.70960000  0.79680000  1.0
  H  H2125  1  0.00540000  0.70960000  0.48820000  1.0
  H  H2126  1  0.70960000  0.48820000  0.00540000  1.0
  H  H2127  1  0.48820000  0.79680000  0.00540000  1.0
  H  H2128  1  0.79680000  0.48820000  0.70960000  1.0
  H  H2129  1  0.79680000  0.00540000  0.48820000  1.0
  H  H2130  1  0.51180000  0.29040000  0.99460000  1.0
  H  H2131  1  0.20320000  0.99460000  0.29040000  1.0
  H  H2132  1  0.20320000  0.29040000  0.51180000  1.0
  H  H2133  1  0.29040000  0.20320000  0.99460000  1.0
  H  H2134  1  0.20320000  0.51180000  0.99460000  1.0
  H  H2135  1  0.99460000  0.29040000  0.20320000  1.0
  H  H2208  1  0.20320000  0.29040000  0.99460000  1.0
  H  H2209  1  0.00540000  0.79680000  0.48820000  1.0
  H  H2210  1  0.51180000  0.99460000  0.29040000  1.0
  H  H2211  1  0.70960000  0.48820000  0.79680000  1.0
  H  H2212  1  0.00540000  0.48820000  0.70960000  1.0
  H  H2213  1  0.29040000  0.20320000  0.51180000  1.0
  H  H2214  1  0.48820000  0.00540000  0.79680000  1.0
  H  H2215  1  0.48820000  0.79680000  0.70960000  1.0
  H  H2216  1  0.99460000  0.51180000  0.20320000  1.0
  H  H2217  1  0.70960000  0.00540000  0.48820000  1.0
  H  H2218  1  0.29040000  0.99460000  0.20320000  1.0
  H  H2219  1  0.99460000  0.20320000  0.29040000  1.0
  H  H2220  1  0.51180000  0.29040000  0.20320000  1.0
  H  H2221  1  0.99460000  0.29040000  0.51180000  1.0
  H  H2222  1  0.29040000  0.51180000  0.99460000  1.0
  H  H2223  1  0.51180000  0.20320000  0.99460000  1.0
  H  H2224  1  0.20320000  0.51180000  0.29040000  1.0
  H  H2225  1  0.20320000  0.99460000  0.51180000  1.0
  H  H2226  1  0.48820000  0.70960000  0.00540000  1.0
  H  H2227  1  0.79680000  0.00540000  0.70960000  1.0
  H  H2228  1  0.79680000  0.70960000  0.48820000  1.0
  H  H2229  1  0.70960000  0.79680000  0.00540000  1.0
  H  H2230  1  0.79680000  0.48820000  0.00540000  1.0
  H  H2231  1  0.00540000  0.70960000  0.79680000  1.0
  H  H2496  1  0.83520000  0.74820000  0.93100000  1.0
  H  H2497  1  0.06900000  0.16480000  0.51440000  1.0
  H  H2498  1  0.48560000  0.93100000  0.74820000  1.0
  H  H2499  1  0.25180000  0.51440000  0.16480000  1.0
  H  H2500  1  0.06900000  0.51440000  0.25180000  1.0
  H  H2501  1  0.74820000  0.83520000  0.48560000  1.0
  H  H2502  1  0.51440000  0.06900000  0.16480000  1.0
  H  H2503  1  0.51440000  0.16480000  0.25180000  1.0
  H  H2504  1  0.93100000  0.48560000  0.83520000  1.0
  H  H2505  1  0.25180000  0.06900000  0.51440000  1.0
  H  H2506  1  0.74820000  0.93100000  0.83520000  1.0
  H  H2507  1  0.93100000  0.83520000  0.74820000  1.0
  H  H2508  1  0.48560000  0.74820000  0.83520000  1.0
  H  H2509  1  0.93100000  0.74820000  0.48560000  1.0
  H  H2510  1  0.74820000  0.48560000  0.93100000  1.0
  H  H2511  1  0.48560000  0.83520000  0.93100000  1.0
  H  H2512  1  0.83520000  0.48560000  0.74820000  1.0
  H  H2513  1  0.83520000  0.93100000  0.48560000  1.0
  H  H2514  1  0.51440000  0.25180000  0.06900000  1.0
  H  H2515  1  0.16480000  0.06900000  0.25180000  1.0
  H  H2516  1  0.16480000  0.25180000  0.51440000  1.0
  H  H2517  1  0.25180000  0.16480000  0.06900000  1.0
  H  H2518  1  0.16480000  0.51440000  0.06900000  1.0
  H  H2519  1  0.06900000  0.25180000  0.16480000  1.0
  H  H2592  1  0.16480000  0.25180000  0.06900000  1.0
  H  H2593  1  0.93100000  0.83520000  0.48560000  1.0
  H  H2594  1  0.51440000  0.06900000  0.25180000  1.0
  H  H2595  1  0.74820000  0.48560000  0.83520000  1.0
  H  H2596  1  0.93100000  0.48560000  0.74820000  1.0
  H  H2597  1  0.25180000  0.16480000  0.51440000  1.0
  H  H2598  1  0.48560000  0.93100000  0.83520000  1.0
  H  H2599  1  0.48560000  0.83520000  0.74820000  1.0
  H  H2600  1  0.06900000  0.51440000  0.16480000  1.0
  H  H2601  1  0.74820000  0.93100000  0.48560000  1.0
  H  H2602  1  0.25180000  0.06900000  0.16480000  1.0
  H  H2603  1  0.06900000  0.16480000  0.25180000  1.0
  H  H2604  1  0.51440000  0.25180000  0.16480000  1.0
  H  H2605  1  0.06900000  0.25180000  0.51440000  1.0
  H  H2606  1  0.25180000  0.51440000  0.06900000  1.0
  H  H2607  1  0.51440000  0.16480000  0.06900000  1.0
  H  H2608  1  0.16480000  0.51440000  0.25180000  1.0
  H  H2609  1  0.16480000  0.06900000  0.51440000  1.0
  H  H2610  1  0.48560000  0.74820000  0.93100000  1.0
  H  H2611  1  0.83520000  0.93100000  0.74820000  1.0
  H  H2612  1  0.83520000  0.74820000  0.48560000  1.0
  H  H2613  1  0.74820000  0.83520000  0.93100000  1.0
  H  H2614  1  0.83520000  0.48560000  0.93100000  1.0
  H  H2615  1  0.93100000  0.74820000  0.83520000  1.0
  H  H2976  1  0.88760000  0.77903333  0.88760000  1.0
  H  H2977  1  0.11240000  0.11240000  0.55423333  1.0
  H  H2978  1  0.44576667  0.88760000  0.77903333  1.0
  H  H2979  1  0.22096667  0.55423333  0.11240000  1.0
  H  H2980  1  0.11240000  0.55423333  0.22096667  1.0
  H  H2981  1  0.77903333  0.88760000  0.44576667  1.0
  H  H2982  1  0.55423333  0.11240000  0.11240000  1.0
  H  H2983  1  0.55423333  0.11240000  0.22096667  1.0
  H  H2984  1  0.88760000  0.44576667  0.88760000  1.0
  H  H2985  1  0.22096667  0.11240000  0.55423333  1.0
  H  H2986  1  0.77903333  0.88760000  0.88760000  1.0
  H  H2987  1  0.88760000  0.88760000  0.77903333  1.0
  H  H2988  1  0.44576667  0.77903333  0.88760000  1.0
  H  H2989  1  0.88760000  0.77903333  0.44576667  1.0
  H  H2990  1  0.77903333  0.44576667  0.88760000  1.0
  H  H2991  1  0.44576667  0.88760000  0.88760000  1.0
  H  H2992  1  0.88760000  0.44576667  0.77903333  1.0
  H  H2993  1  0.88760000  0.88760000  0.44576667  1.0
  H  H2994  1  0.55423333  0.22096667  0.11240000  1.0
  H  H2995  1  0.11240000  0.11240000  0.22096667  1.0
  H  H2996  1  0.11240000  0.22096667  0.55423333  1.0
  H  H2997  1  0.22096667  0.11240000  0.11240000  1.0
  H  H2998  1  0.11240000  0.55423333  0.11240000  1.0
  H  H2999  1  0.11240000  0.22096667  0.11240000  1.0
  O  O96  1  0.56178880  0.69128880  0.25766880  1.0
  O  O97  1  0.74233120  0.43821120  0.51074640  1.0
  O  O98  1  0.48925360  0.25766880  0.69128880  1.0
  O  O99  1  0.30871120  0.51074640  0.43821120  1.0
  O  O100  1  0.74233120  0.51074640  0.30871120  1.0
  O  O101  1  0.69128880  0.56178880  0.48925360  1.0
  O  O102  1  0.51074640  0.74233120  0.43821120  1.0
  O  O103  1  0.51074640  0.43821120  0.30871120  1.0
  O  O104  1  0.25766880  0.48925360  0.56178880  1.0
  O  O105  1  0.30871120  0.74233120  0.51074640  1.0
  O  O106  1  0.69128880  0.25766880  0.56178880  1.0
  O  O107  1  0.25766880  0.56178880  0.69128880  1.0
  O  O108  1  0.48925360  0.69128880  0.56178880  1.0
  O  O109  1  0.25766880  0.69128880  0.48925360  1.0
  O  O110  1  0.69128880  0.48925360  0.25766880  1.0
  O  O111  1  0.48925360  0.56178880  0.25766880  1.0
  O  O112  1  0.56178880  0.48925360  0.69128880  1.0
  O  O113  1  0.56178880  0.25766880  0.48925360  1.0
  O  O114  1  0.51074640  0.30871120  0.74233120  1.0
  O  O115  1  0.43821120  0.74233120  0.30871120  1.0
  O  O116  1  0.43821120  0.30871120  0.51074640  1.0
  O  O117  1  0.30871120  0.43821120  0.74233120  1.0
  O  O118  1  0.43821120  0.51074640  0.74233120  1.0
  O  O119  1  0.74233120  0.30871120  0.43821120  1.0
  O  O192  1  0.43821120  0.30871120  0.74233120  1.0
  O  O193  1  0.25766880  0.56178880  0.48925360  1.0
  O  O194  1  0.51074640  0.74233120  0.30871120  1.0
  O  O195  1  0.69128880  0.48925360  0.56178880  1.0
  O  O196  1  0.25766880  0.48925360  0.69128880  1.0
  O  O197  1  0.30871120  0.43821120  0.51074640  1.0
  O  O198  1  0.48925360  0.25766880  0.56178880  1.0
  O  O199  1  0.48925360  0.56178880  0.69128880  1.0
  O  O200  1  0.74233120  0.51074640  0.43821120  1.0
  O  O201  1  0.69128880  0.25766880  0.48925360  1.0
  O  O202  1  0.30871120  0.74233120  0.43821120  1.0
  O  O203  1  0.74233120  0.43821120  0.30871120  1.0
  O  O204  1  0.51074640  0.30871120  0.43821120  1.0
  O  O205  1  0.74233120  0.30871120  0.51074640  1.0
  O  O206  1  0.30871120  0.51074640  0.74233120  1.0
  O  O207  1  0.51074640  0.43821120  0.74233120  1.0
  O  O208  1  0.43821120  0.51074640  0.30871120  1.0
  O  O209  1  0.43821120  0.74233120  0.51074640  1.0
  O  O210  1  0.48925360  0.69128880  0.25766880  1.0
  O  O211  1  0.56178880  0.25766880  0.69128880  1.0
  O  O212  1  0.56178880  0.69128880  0.48925360  1.0
  O  O213  1  0.69128880  0.56178880  0.25766880  1.0
  O  O214  1  0.56178880  0.48925360  0.25766880  1.0
  O  O215  1  0.25766880  0.69128880  0.56178880  1.0
  O  O288  1  0.56143840  0.75215840  0.19707880  1.0
  O  O289  1  0.80292120  0.43856160  0.51067560  1.0
  O  O290  1  0.48932440  0.19707880  0.75215840  1.0
  O  O291  1  0.24784160  0.51067560  0.43856160  1.0
  O  O292  1  0.80292120  0.51067560  0.24784160  1.0
  O  O293  1  0.75215840  0.56143840  0.48932440  1.0
  O  O294  1  0.51067560  0.80292120  0.43856160  1.0
  O  O295  1  0.51067560  0.43856160  0.24784160  1.0
  O  O296  1  0.19707880  0.48932440  0.56143840  1.0
  O  O297  1  0.24784160  0.80292120  0.51067560  1.0
  O  O298  1  0.75215840  0.19707880  0.56143840  1.0
  O  O299  1  0.19707880  0.56143840  0.75215840  1.0
  O  O300  1  0.48932440  0.75215840  0.56143840  1.0
  O  O301  1  0.19707880  0.75215840  0.48932440  1.0
  O  O302  1  0.75215840  0.48932440  0.19707880  1.0
  O  O303  1  0.48932440  0.56143840  0.19707880  1.0
  O  O304  1  0.56143840  0.48932440  0.75215840  1.0
  O  O305  1  0.56143840  0.19707880  0.48932440  1.0
  O  O306  1  0.51067560  0.24784160  0.80292120  1.0
  O  O307  1  0.43856160  0.80292120  0.24784160  1.0
  O  O308  1  0.43856160  0.24784160  0.51067560  1.0
  O  O309  1  0.24784160  0.43856160  0.80292120  1.0
  O  O310  1  0.43856160  0.51067560  0.80292120  1.0
  O  O311  1  0.80292120  0.24784160  0.43856160  1.0
  O  O384  1  0.43856160  0.24784160  0.80292120  1.0
  O  O385  1  0.19707880  0.56143840  0.48932440  1.0
  O  O386  1  0.51067560  0.80292120  0.24784160  1.0
  O  O387  1  0.75215840  0.48932440  0.56143840  1.0
  O  O388  1  0.19707880  0.48932440  0.75215840  1.0
  O  O389  1  0.24784160  0.43856160  0.51067560  1.0
  O  O390  1  0.48932440  0.19707880  0.56143840  1.0
  O  O391  1  0.48932440  0.56143840  0.75215840  1.0
  O  O392  1  0.80292120  0.51067560  0.43856160  1.0
  O  O393  1  0.75215840  0.19707880  0.48932440  1.0
  O  O394  1  0.24784160  0.80292120  0.43856160  1.0
  O  O395  1  0.80292120  0.43856160  0.24784160  1.0
  O  O396  1  0.51067560  0.24784160  0.43856160  1.0
  O  O397  1  0.80292120  0.24784160  0.51067560  1.0
  O  O398  1  0.24784160  0.51067560  0.80292120  1.0
  O  O399  1  0.51067560  0.43856160  0.80292120  1.0
  O  O400  1  0.43856160  0.51067560  0.24784160  1.0
  O  O401  1  0.43856160  0.80292120  0.51067560  1.0
  O  O402  1  0.48932440  0.75215840  0.19707880  1.0
  O  O403  1  0.56143840  0.19707880  0.75215840  1.0
  O  O404  1  0.56143840  0.75215840  0.48932440  1.0
  O  O405  1  0.75215840  0.56143840  0.19707880  1.0
  O  O406  1  0.56143840  0.48932440  0.19707880  1.0
  O  O407  1  0.19707880  0.75215840  0.56143840  1.0
