# generated using pymatgen
data_CuH8C18O5
_symmetry_space_group_name_H-M   'P 1'
_cell_length_a   52.73850000
_cell_length_b   52.73850000
_cell_length_c   52.73850000
_cell_angle_alpha   90.00000000
_cell_angle_beta   90.00000000
_cell_angle_gamma   90.00000000
_symmetry_Int_Tables_number   1
_chemical_formula_structural   CuH8C18O5
_chemical_formula_sum   'Cu96 H768 C1728 O480'
_cell_volume   146684.19439579
_cell_formula_units_Z   96
loop_
 _symmetry_equiv_pos_site_id
 _symmetry_equiv_pos_as_xyz
  1  'x, y, z'
loop_
 _atom_site_type_symbol
 _atom_site_label
 _atom_site_symmetry_multiplicity
 _atom_site_fract_x
 _atom_site_fract_y
 _atom_site_fract_z
 _atom_site_occupancy
  Cu  Cu0  1  0.39395300  0.10600000  0.00000300  1
  Cu  Cu1  1  0.89400000  0.39395300  0.00000300  1
  Cu  Cu2  1  0.60604700  0.89400000  0.00000300  1
  Cu  Cu3  1  0.10600000  0.60604700  0.00000300  1
  Cu  Cu4  1  0.39395300  0.00000000  0.10600000  1
  Cu  Cu5  1  0.39395300  0.89400000  0.00000000  1
  Cu  Cu6  1  0.39395300  0.00000300  0.89400000  1
  Cu  Cu7  1  0.00000300  0.10600000  0.60604700  1
  Cu  Cu8  1  0.60604700  0.10600000  0.00000000  1
  Cu  Cu9  1  0.00000000  0.10600000  0.39395300  1
  Cu  Cu10  1  0.00000300  0.39395300  0.10600000  1
  Cu  Cu11  1  0.10600000  0.00000300  0.39395300  1
  Cu  Cu12  1  0.89400000  0.00000000  0.39395300  1
  Cu  Cu13  1  0.00000300  0.60604700  0.89400000  1
  Cu  Cu14  1  0.89400000  0.00000300  0.60604700  1
  Cu  Cu15  1  0.00000000  0.60604700  0.10600000  1
  Cu  Cu16  1  0.00000000  0.39395300  0.89400000  1
  Cu  Cu17  1  0.10600000  0.00000000  0.60604700  1
  Cu  Cu18  1  0.10600000  0.39395300  0.00000000  1
  Cu  Cu19  1  0.89400000  0.60604700  0.00000000  1
  Cu  Cu20  1  0.60604700  0.00000300  0.10600000  1
  Cu  Cu21  1  0.60604700  0.00000000  0.89400000  1
  Cu  Cu22  1  0.00000300  0.89400000  0.39395300  1
  Cu  Cu23  1  0.00000000  0.89400000  0.60604700  1
  Cu  Cu24  1  0.39395300  0.60600000  0.50000300  1
  Cu  Cu25  1  0.89400000  0.89395300  0.50000300  1
  Cu  Cu26  1  0.60604700  0.39400000  0.50000300  1
  Cu  Cu27  1  0.10600000  0.10604700  0.50000300  1
  Cu  Cu28  1  0.39395300  0.49999700  0.60600000  1
  Cu  Cu29  1  0.39395300  0.39400000  0.49999700  1
  Cu  Cu30  1  0.39395300  0.50000300  0.39400000  1
  Cu  Cu31  1  0.60604700  0.60600000  0.49999700  1
  Cu  Cu32  1  0.10600000  0.50000300  0.89395300  1
  Cu  Cu33  1  0.89400000  0.49999700  0.89395300  1
  Cu  Cu34  1  0.89400000  0.50000300  0.10604700  1
  Cu  Cu35  1  0.10600000  0.49999700  0.10604700  1
  Cu  Cu36  1  0.10600000  0.89395300  0.49999700  1
  Cu  Cu37  1  0.89400000  0.10604700  0.49999700  1
  Cu  Cu38  1  0.60604700  0.50000300  0.60600000  1
  Cu  Cu39  1  0.60604700  0.49999700  0.39400000  1
  Cu  Cu40  1  0.50000300  0.10600000  0.10604700  1
  Cu  Cu41  1  0.49999700  0.10600000  0.89395300  1
  Cu  Cu42  1  0.50000300  0.39395300  0.60600000  1
  Cu  Cu43  1  0.50000300  0.60604700  0.39400000  1
  Cu  Cu44  1  0.49999700  0.60604700  0.60600000  1
  Cu  Cu45  1  0.49999700  0.39395300  0.39400000  1
  Cu  Cu46  1  0.50000300  0.89400000  0.89395300  1
  Cu  Cu47  1  0.49999700  0.89400000  0.10604700  1
  Cu  Cu48  1  0.35892300  0.14110000  0.00000300  1
  Cu  Cu49  1  0.85890000  0.35892300  0.00000300  1
  Cu  Cu50  1  0.64107700  0.85890000  0.00000300  1
  Cu  Cu51  1  0.14110000  0.64107700  0.00000300  1
  Cu  Cu52  1  0.35892300  0.00000000  0.14110000  1
  Cu  Cu53  1  0.35892300  0.85890000  0.00000000  1
  Cu  Cu54  1  0.35892300  0.00000300  0.85890000  1
  Cu  Cu55  1  0.00000300  0.14110000  0.64107700  1
  Cu  Cu56  1  0.64107700  0.14110000  0.00000000  1
  Cu  Cu57  1  0.00000000  0.14110000  0.35892300  1
  Cu  Cu58  1  0.00000300  0.35892300  0.14110000  1
  Cu  Cu59  1  0.14110000  0.00000300  0.35892300  1
  Cu  Cu60  1  0.85890000  0.00000000  0.35892300  1
  Cu  Cu61  1  0.00000300  0.64107700  0.85890000  1
  Cu  Cu62  1  0.85890000  0.00000300  0.64107700  1
  Cu  Cu63  1  0.00000000  0.64107700  0.14110000  1
  Cu  Cu64  1  0.00000000  0.35892300  0.85890000  1
  Cu  Cu65  1  0.14110000  0.00000000  0.64107700  1
  Cu  Cu66  1  0.14110000  0.35892300  0.00000000  1
  Cu  Cu67  1  0.85890000  0.64107700  0.00000000  1
  Cu  Cu68  1  0.64107700  0.00000300  0.14110000  1
  Cu  Cu69  1  0.64107700  0.00000000  0.85890000  1
  Cu  Cu70  1  0.00000300  0.85890000  0.35892300  1
  Cu  Cu71  1  0.00000000  0.85890000  0.64107700  1
  Cu  Cu72  1  0.35892300  0.64110000  0.50000300  1
  Cu  Cu73  1  0.85890000  0.85892300  0.50000300  1
  Cu  Cu74  1  0.64107700  0.35890000  0.50000300  1
  Cu  Cu75  1  0.14110000  0.14107700  0.50000300  1
  Cu  Cu76  1  0.35892300  0.49999700  0.64110000  1
  Cu  Cu77  1  0.35892300  0.35890000  0.49999700  1
  Cu  Cu78  1  0.35892300  0.50000300  0.35890000  1
  Cu  Cu79  1  0.64107700  0.64110000  0.49999700  1
  Cu  Cu80  1  0.14110000  0.50000300  0.85892300  1
  Cu  Cu81  1  0.85890000  0.49999700  0.85892300  1
  Cu  Cu82  1  0.85890000  0.50000300  0.14107700  1
  Cu  Cu83  1  0.14110000  0.49999700  0.14107700  1
  Cu  Cu84  1  0.14110000  0.85892300  0.49999700  1
  Cu  Cu85  1  0.85890000  0.14107700  0.49999700  1
  Cu  Cu86  1  0.64107700  0.50000300  0.64110000  1
  Cu  Cu87  1  0.64107700  0.49999700  0.35890000  1
  Cu  Cu88  1  0.50000300  0.14110000  0.14107700  1
  Cu  Cu89  1  0.49999700  0.14110000  0.85892300  1
  Cu  Cu90  1  0.50000300  0.35892300  0.64110000  1
  Cu  Cu91  1  0.50000300  0.64107700  0.35890000  1
  Cu  Cu92  1  0.49999700  0.64107700  0.64110000  1
  Cu  Cu93  1  0.49999700  0.35892300  0.35890000  1
  Cu  Cu94  1  0.50000300  0.85890000  0.85892300  1
  Cu  Cu95  1  0.49999700  0.85890000  0.14107700  1
  O  O96  1  0.37346120  0.09027120  0.02552120  1
  O  O97  1  0.90972880  0.37346120  0.02552120  1
  O  O98  1  0.62653880  0.90972880  0.02552120  1
  O  O99  1  0.09027120  0.62653880  0.02552120  1
  O  O100  1  0.37346120  0.97447880  0.09027120  1
  O  O101  1  0.37346120  0.90972880  0.97447880  1
  O  O102  1  0.37346120  0.02552120  0.90972880  1
  O  O103  1  0.02552120  0.09027120  0.62653880  1
  O  O104  1  0.62653880  0.09027120  0.97447880  1
  O  O105  1  0.97447880  0.09027120  0.37346120  1
  O  O106  1  0.02552120  0.37346120  0.09027120  1
  O  O107  1  0.09027120  0.02552120  0.37346120  1
  O  O108  1  0.90972880  0.97447880  0.37346120  1
  O  O109  1  0.02552120  0.62653880  0.90972880  1
  O  O110  1  0.90972880  0.02552120  0.62653880  1
  O  O111  1  0.97447880  0.62653880  0.09027120  1
  O  O112  1  0.97447880  0.37346120  0.90972880  1
  O  O113  1  0.09027120  0.97447880  0.62653880  1
  O  O114  1  0.09027120  0.37346120  0.97447880  1
  O  O115  1  0.90972880  0.62653880  0.97447880  1
  O  O116  1  0.62653880  0.02552120  0.09027120  1
  O  O117  1  0.62653880  0.97447880  0.90972880  1
  O  O118  1  0.02552120  0.90972880  0.37346120  1
  O  O119  1  0.97447880  0.90972880  0.62653880  1
  O  O120  1  0.37346120  0.59027120  0.52552120  1
  O  O121  1  0.90972880  0.87346120  0.52552120  1
  O  O122  1  0.62653880  0.40972880  0.52552120  1
  O  O123  1  0.09027120  0.12653880  0.52552120  1
  O  O124  1  0.37346120  0.47447880  0.59027120  1
  O  O125  1  0.37346120  0.40972880  0.47447880  1
  O  O126  1  0.37346120  0.52552120  0.40972880  1
  O  O127  1  0.02552120  0.59027120  0.12653880  1
  O  O128  1  0.62653880  0.59027120  0.47447880  1
  O  O129  1  0.97447880  0.59027120  0.87346120  1
  O  O130  1  0.02552120  0.87346120  0.59027120  1
  O  O131  1  0.09027120  0.52552120  0.87346120  1
  O  O132  1  0.90972880  0.47447880  0.87346120  1
  O  O133  1  0.02552120  0.12653880  0.40972880  1
  O  O134  1  0.90972880  0.52552120  0.12653880  1
  O  O135  1  0.97447880  0.12653880  0.59027120  1
  O  O136  1  0.97447880  0.87346120  0.40972880  1
  O  O137  1  0.09027120  0.47447880  0.12653880  1
  O  O138  1  0.09027120  0.87346120  0.47447880  1
  O  O139  1  0.90972880  0.12653880  0.47447880  1
  O  O140  1  0.62653880  0.52552120  0.59027120  1
  O  O141  1  0.62653880  0.47447880  0.40972880  1
  O  O142  1  0.02552120  0.40972880  0.87346120  1
  O  O143  1  0.97447880  0.40972880  0.12653880  1
  O  O144  1  0.87346120  0.09027120  0.52552120  1
  O  O145  1  0.40972880  0.37346120  0.52552120  1
  O  O146  1  0.12653880  0.90972880  0.52552120  1
  O  O147  1  0.59027120  0.62653880  0.52552120  1
  O  O148  1  0.87346120  0.97447880  0.59027120  1
  O  O149  1  0.87346120  0.90972880  0.47447880  1
  O  O150  1  0.87346120  0.02552120  0.40972880  1
  O  O151  1  0.52552120  0.09027120  0.12653880  1
  O  O152  1  0.12653880  0.09027120  0.47447880  1
  O  O153  1  0.47447880  0.09027120  0.87346120  1
  O  O154  1  0.52552120  0.37346120  0.59027120  1
  O  O155  1  0.59027120  0.02552120  0.87346120  1
  O  O156  1  0.40972880  0.97447880  0.87346120  1
  O  O157  1  0.52552120  0.62653880  0.40972880  1
  O  O158  1  0.40972880  0.02552120  0.12653880  1
  O  O159  1  0.47447880  0.62653880  0.59027120  1
  O  O160  1  0.47447880  0.37346120  0.40972880  1
  O  O161  1  0.59027120  0.97447880  0.12653880  1
  O  O162  1  0.59027120  0.37346120  0.47447880  1
  O  O163  1  0.40972880  0.62653880  0.47447880  1
  O  O164  1  0.12653880  0.02552120  0.59027120  1
  O  O165  1  0.12653880  0.97447880  0.40972880  1
  O  O166  1  0.52552120  0.90972880  0.87346120  1
  O  O167  1  0.47447880  0.90972880  0.12653880  1
  O  O168  1  0.87346120  0.59027120  0.02552120  1
  O  O169  1  0.40972880  0.87346120  0.02552120  1
  O  O170  1  0.12653880  0.40972880  0.02552120  1
  O  O171  1  0.59027120  0.12653880  0.02552120  1
  O  O172  1  0.87346120  0.47447880  0.09027120  1
  O  O173  1  0.87346120  0.40972880  0.97447880  1
  O  O174  1  0.87346120  0.52552120  0.90972880  1
  O  O175  1  0.52552120  0.59027120  0.62653880  1
  O  O176  1  0.12653880  0.59027120  0.97447880  1
  O  O177  1  0.47447880  0.59027120  0.37346120  1
  O  O178  1  0.52552120  0.87346120  0.09027120  1
  O  O179  1  0.59027120  0.52552120  0.37346120  1
  O  O180  1  0.40972880  0.47447880  0.37346120  1
  O  O181  1  0.52552120  0.12653880  0.90972880  1
  O  O182  1  0.40972880  0.52552120  0.62653880  1
  O  O183  1  0.47447880  0.12653880  0.09027120  1
  O  O184  1  0.47447880  0.87346120  0.90972880  1
  O  O185  1  0.59027120  0.47447880  0.62653880  1
  O  O186  1  0.59027120  0.87346120  0.97447880  1
  O  O187  1  0.40972880  0.12653880  0.97447880  1
  O  O188  1  0.12653880  0.52552120  0.09027120  1
  O  O189  1  0.12653880  0.47447880  0.90972880  1
  O  O190  1  0.52552120  0.40972880  0.37346120  1
  O  O191  1  0.47447880  0.40972880  0.62653880  1
  O  O192  1  0.62653880  0.90972880  0.97447880  1
  O  O193  1  0.09027120  0.62653880  0.97447880  1
  O  O194  1  0.37346120  0.09027120  0.97447880  1
  O  O195  1  0.90972880  0.37346120  0.97447880  1
  O  O196  1  0.62653880  0.02552120  0.90972880  1
  O  O197  1  0.62653880  0.09027120  0.02552120  1
  O  O198  1  0.62653880  0.97447880  0.09027120  1
  O  O199  1  0.97447880  0.90972880  0.37346120  1
  O  O200  1  0.37346120  0.90972880  0.02552120  1
  O  O201  1  0.02552120  0.90972880  0.62653880  1
  O  O202  1  0.97447880  0.62653880  0.90972880  1
  O  O203  1  0.90972880  0.97447880  0.62653880  1
  O  O204  1  0.09027120  0.02552120  0.62653880  1
  O  O205  1  0.97447880  0.37346120  0.09027120  1
  O  O206  1  0.09027120  0.97447880  0.37346120  1
  O  O207  1  0.02552120  0.37346120  0.90972880  1
  O  O208  1  0.02552120  0.62653880  0.09027120  1
  O  O209  1  0.90972880  0.02552120  0.37346120  1
  O  O210  1  0.90972880  0.62653880  0.02552120  1
  O  O211  1  0.09027120  0.37346120  0.02552120  1
  O  O212  1  0.37346120  0.97447880  0.90972880  1
  O  O213  1  0.37346120  0.02552120  0.09027120  1
  O  O214  1  0.97447880  0.09027120  0.62653880  1
  O  O215  1  0.02552120  0.09027120  0.37346120  1
  O  O216  1  0.62653880  0.40972880  0.47447880  1
  O  O217  1  0.09027120  0.12653880  0.47447880  1
  O  O218  1  0.37346120  0.59027120  0.47447880  1
  O  O219  1  0.90972880  0.87346120  0.47447880  1
  O  O220  1  0.62653880  0.52552120  0.40972880  1
  O  O221  1  0.62653880  0.59027120  0.52552120  1
  O  O222  1  0.62653880  0.47447880  0.59027120  1
  O  O223  1  0.97447880  0.40972880  0.87346120  1
  O  O224  1  0.37346120  0.40972880  0.52552120  1
  O  O225  1  0.02552120  0.40972880  0.12653880  1
  O  O226  1  0.97447880  0.12653880  0.40972880  1
  O  O227  1  0.90972880  0.47447880  0.12653880  1
  O  O228  1  0.09027120  0.52552120  0.12653880  1
  O  O229  1  0.97447880  0.87346120  0.59027120  1
  O  O230  1  0.09027120  0.47447880  0.87346120  1
  O  O231  1  0.02552120  0.87346120  0.40972880  1
  O  O232  1  0.02552120  0.12653880  0.59027120  1
  O  O233  1  0.90972880  0.52552120  0.87346120  1
  O  O234  1  0.90972880  0.12653880  0.52552120  1
  O  O235  1  0.09027120  0.87346120  0.52552120  1
  O  O236  1  0.37346120  0.47447880  0.40972880  1
  O  O237  1  0.37346120  0.52552120  0.59027120  1
  O  O238  1  0.97447880  0.59027120  0.12653880  1
  O  O239  1  0.02552120  0.59027120  0.87346120  1
  O  O240  1  0.12653880  0.90972880  0.47447880  1
  O  O241  1  0.59027120  0.62653880  0.47447880  1
  O  O242  1  0.87346120  0.09027120  0.47447880  1
  O  O243  1  0.40972880  0.37346120  0.47447880  1
  O  O244  1  0.12653880  0.02552120  0.40972880  1
  O  O245  1  0.12653880  0.09027120  0.52552120  1
  O  O246  1  0.12653880  0.97447880  0.59027120  1
  O  O247  1  0.47447880  0.90972880  0.87346120  1
  O  O248  1  0.87346120  0.90972880  0.52552120  1
  O  O249  1  0.52552120  0.90972880  0.12653880  1
  O  O250  1  0.47447880  0.62653880  0.40972880  1
  O  O251  1  0.40972880  0.97447880  0.12653880  1
  O  O252  1  0.59027120  0.02552120  0.12653880  1
  O  O253  1  0.47447880  0.37346120  0.59027120  1
  O  O254  1  0.59027120  0.97447880  0.87346120  1
  O  O255  1  0.52552120  0.37346120  0.40972880  1
  O  O256  1  0.52552120  0.62653880  0.59027120  1
  O  O257  1  0.40972880  0.02552120  0.87346120  1
  O  O258  1  0.40972880  0.62653880  0.52552120  1
  O  O259  1  0.59027120  0.37346120  0.52552120  1
  O  O260  1  0.87346120  0.97447880  0.40972880  1
  O  O261  1  0.87346120  0.02552120  0.59027120  1
  O  O262  1  0.47447880  0.09027120  0.12653880  1
  O  O263  1  0.52552120  0.09027120  0.87346120  1
  O  O264  1  0.12653880  0.40972880  0.97447880  1
  O  O265  1  0.59027120  0.12653880  0.97447880  1
  O  O266  1  0.87346120  0.59027120  0.97447880  1
  O  O267  1  0.40972880  0.87346120  0.97447880  1
  O  O268  1  0.12653880  0.52552120  0.90972880  1
  O  O269  1  0.12653880  0.59027120  0.02552120  1
  O  O270  1  0.12653880  0.47447880  0.09027120  1
  O  O271  1  0.47447880  0.40972880  0.37346120  1
  O  O272  1  0.87346120  0.40972880  0.02552120  1
  O  O273  1  0.52552120  0.40972880  0.62653880  1
  O  O274  1  0.47447880  0.12653880  0.90972880  1
  O  O275  1  0.40972880  0.47447880  0.62653880  1
  O  O276  1  0.59027120  0.52552120  0.62653880  1
  O  O277  1  0.47447880  0.87346120  0.09027120  1
  O  O278  1  0.59027120  0.47447880  0.37346120  1
  O  O279  1  0.52552120  0.87346120  0.90972880  1
  O  O280  1  0.52552120  0.12653880  0.09027120  1
  O  O281  1  0.40972880  0.52552120  0.37346120  1
  O  O282  1  0.40972880  0.12653880  0.02552120  1
  O  O283  1  0.59027120  0.87346120  0.02552120  1
  O  O284  1  0.87346120  0.47447880  0.90972880  1
  O  O285  1  0.87346120  0.52552120  0.09027120  1
  O  O286  1  0.47447880  0.59027120  0.62653880  1
  O  O287  1  0.52552120  0.59027120  0.37346120  1
  O  O288  1  0.34320160  0.12074140  0.02538140  1
  O  O289  1  0.87925860  0.34320160  0.02538140  1
  O  O290  1  0.65679840  0.87925860  0.02538140  1
  O  O291  1  0.12074140  0.65679840  0.02538140  1
  O  O292  1  0.34320160  0.97461860  0.12074140  1
  O  O293  1  0.34320160  0.87925860  0.97461860  1
  O  O294  1  0.34320160  0.02538140  0.87925860  1
  O  O295  1  0.02538140  0.12074140  0.65679840  1
  O  O296  1  0.65679840  0.12074140  0.97461860  1
  O  O297  1  0.97461860  0.12074140  0.34320160  1
  O  O298  1  0.02538140  0.34320160  0.12074140  1
  O  O299  1  0.12074140  0.02538140  0.34320160  1
  O  O300  1  0.87925860  0.97461860  0.34320160  1
  O  O301  1  0.02538140  0.65679840  0.87925860  1
  O  O302  1  0.87925860  0.02538140  0.65679840  1
  O  O303  1  0.97461860  0.65679840  0.12074140  1
  O  O304  1  0.97461860  0.34320160  0.87925860  1
  O  O305  1  0.12074140  0.97461860  0.65679840  1
  O  O306  1  0.12074140  0.34320160  0.97461860  1
  O  O307  1  0.87925860  0.65679840  0.97461860  1
  O  O308  1  0.65679840  0.02538140  0.12074140  1
  O  O309  1  0.65679840  0.97461860  0.87925860  1
  O  O310  1  0.02538140  0.87925860  0.34320160  1
  O  O311  1  0.97461860  0.87925860  0.65679840  1
  O  O312  1  0.34320160  0.62074140  0.52538140  1
  O  O313  1  0.87925860  0.84320160  0.52538140  1
  O  O314  1  0.65679840  0.37925860  0.52538140  1
  O  O315  1  0.12074140  0.15679840  0.52538140  1
  O  O316  1  0.34320160  0.47461860  0.62074140  1
  O  O317  1  0.34320160  0.37925860  0.47461860  1
  O  O318  1  0.34320160  0.52538140  0.37925860  1
  O  O319  1  0.02538140  0.62074140  0.15679840  1
  O  O320  1  0.65679840  0.62074140  0.47461860  1
  O  O321  1  0.97461860  0.62074140  0.84320160  1
  O  O322  1  0.02538140  0.84320160  0.62074140  1
  O  O323  1  0.12074140  0.52538140  0.84320160  1
  O  O324  1  0.87925860  0.47461860  0.84320160  1
  O  O325  1  0.02538140  0.15679840  0.37925860  1
  O  O326  1  0.87925860  0.52538140  0.15679840  1
  O  O327  1  0.97461860  0.15679840  0.62074140  1
  O  O328  1  0.97461860  0.84320160  0.37925860  1
  O  O329  1  0.12074140  0.47461860  0.15679840  1
  O  O330  1  0.12074140  0.84320160  0.47461860  1
  O  O331  1  0.87925860  0.15679840  0.47461860  1
  O  O332  1  0.65679840  0.52538140  0.62074140  1
  O  O333  1  0.65679840  0.47461860  0.37925860  1
  O  O334  1  0.02538140  0.37925860  0.84320160  1
  O  O335  1  0.97461860  0.37925860  0.15679840  1
  O  O336  1  0.84320160  0.12074140  0.52538140  1
  O  O337  1  0.37925860  0.34320160  0.52538140  1
  O  O338  1  0.15679840  0.87925860  0.52538140  1
  O  O339  1  0.62074140  0.65679840  0.52538140  1
  O  O340  1  0.84320160  0.97461860  0.62074140  1
  O  O341  1  0.84320160  0.87925860  0.47461860  1
  O  O342  1  0.84320160  0.02538140  0.37925860  1
  O  O343  1  0.52538140  0.12074140  0.15679840  1
  O  O344  1  0.15679840  0.12074140  0.47461860  1
  O  O345  1  0.47461860  0.12074140  0.84320160  1
  O  O346  1  0.52538140  0.34320160  0.62074140  1
  O  O347  1  0.62074140  0.02538140  0.84320160  1
  O  O348  1  0.37925860  0.97461860  0.84320160  1
  O  O349  1  0.52538140  0.65679840  0.37925860  1
  O  O350  1  0.37925860  0.02538140  0.15679840  1
  O  O351  1  0.47461860  0.65679840  0.62074140  1
  O  O352  1  0.47461860  0.34320160  0.37925860  1
  O  O353  1  0.62074140  0.97461860  0.15679840  1
  O  O354  1  0.62074140  0.34320160  0.47461860  1
  O  O355  1  0.37925860  0.65679840  0.47461860  1
  O  O356  1  0.15679840  0.02538140  0.62074140  1
  O  O357  1  0.15679840  0.97461860  0.37925860  1
  O  O358  1  0.52538140  0.87925860  0.84320160  1
  O  O359  1  0.47461860  0.87925860  0.15679840  1
  O  O360  1  0.84320160  0.62074140  0.02538140  1
  O  O361  1  0.37925860  0.84320160  0.02538140  1
  O  O362  1  0.15679840  0.37925860  0.02538140  1
  O  O363  1  0.62074140  0.15679840  0.02538140  1
  O  O364  1  0.84320160  0.47461860  0.12074140  1
  O  O365  1  0.84320160  0.37925860  0.97461860  1
  O  O366  1  0.84320160  0.52538140  0.87925860  1
  O  O367  1  0.52538140  0.62074140  0.65679840  1
  O  O368  1  0.15679840  0.62074140  0.97461860  1
  O  O369  1  0.47461860  0.62074140  0.34320160  1
  O  O370  1  0.52538140  0.84320160  0.12074140  1
  O  O371  1  0.62074140  0.52538140  0.34320160  1
  O  O372  1  0.37925860  0.47461860  0.34320160  1
  O  O373  1  0.52538140  0.15679840  0.87925860  1
  O  O374  1  0.37925860  0.52538140  0.65679840  1
  O  O375  1  0.47461860  0.15679840  0.12074140  1
  O  O376  1  0.47461860  0.84320160  0.87925860  1
  O  O377  1  0.62074140  0.47461860  0.65679840  1
  O  O378  1  0.62074140  0.84320160  0.97461860  1
  O  O379  1  0.37925860  0.15679840  0.97461860  1
  O  O380  1  0.15679840  0.52538140  0.12074140  1
  O  O381  1  0.15679840  0.47461860  0.87925860  1
  O  O382  1  0.52538140  0.37925860  0.34320160  1
  O  O383  1  0.47461860  0.37925860  0.65679840  1
  O  O384  1  0.65679840  0.87925860  0.97461860  1
  O  O385  1  0.12074140  0.65679840  0.97461860  1
  O  O386  1  0.34320160  0.12074140  0.97461860  1
  O  O387  1  0.87925860  0.34320160  0.97461860  1
  O  O388  1  0.65679840  0.02538140  0.87925860  1
  O  O389  1  0.65679840  0.12074140  0.02538140  1
  O  O390  1  0.65679840  0.97461860  0.12074140  1
  O  O391  1  0.97461860  0.87925860  0.34320160  1
  O  O392  1  0.34320160  0.87925860  0.02538140  1
  O  O393  1  0.02538140  0.87925860  0.65679840  1
  O  O394  1  0.97461860  0.65679840  0.87925860  1
  O  O395  1  0.87925860  0.97461860  0.65679840  1
  O  O396  1  0.12074140  0.02538140  0.65679840  1
  O  O397  1  0.97461860  0.34320160  0.12074140  1
  O  O398  1  0.12074140  0.97461860  0.34320160  1
  O  O399  1  0.02538140  0.34320160  0.87925860  1
  O  O400  1  0.02538140  0.65679840  0.12074140  1
  O  O401  1  0.87925860  0.02538140  0.34320160  1
  O  O402  1  0.87925860  0.65679840  0.02538140  1
  O  O403  1  0.12074140  0.34320160  0.02538140  1
  O  O404  1  0.34320160  0.97461860  0.87925860  1
  O  O405  1  0.34320160  0.02538140  0.12074140  1
  O  O406  1  0.97461860  0.12074140  0.65679840  1
  O  O407  1  0.02538140  0.12074140  0.34320160  1
  O  O408  1  0.65679840  0.37925860  0.47461860  1
  O  O409  1  0.12074140  0.15679840  0.47461860  1
  O  O410  1  0.34320160  0.62074140  0.47461860  1
  O  O411  1  0.87925860  0.84320160  0.47461860  1
  O  O412  1  0.65679840  0.52538140  0.37925860  1
  O  O413  1  0.65679840  0.62074140  0.52538140  1
  O  O414  1  0.65679840  0.47461860  0.62074140  1
  O  O415  1  0.97461860  0.37925860  0.84320160  1
  O  O416  1  0.34320160  0.37925860  0.52538140  1
  O  O417  1  0.02538140  0.37925860  0.15679840  1
  O  O418  1  0.97461860  0.15679840  0.37925860  1
  O  O419  1  0.87925860  0.47461860  0.15679840  1
  O  O420  1  0.12074140  0.52538140  0.15679840  1
  O  O421  1  0.97461860  0.84320160  0.62074140  1
  O  O422  1  0.12074140  0.47461860  0.84320160  1
  O  O423  1  0.02538140  0.84320160  0.37925860  1
  O  O424  1  0.02538140  0.15679840  0.62074140  1
  O  O425  1  0.87925860  0.52538140  0.84320160  1
  O  O426  1  0.87925860  0.15679840  0.52538140  1
  O  O427  1  0.12074140  0.84320160  0.52538140  1
  O  O428  1  0.34320160  0.47461860  0.37925860  1
  O  O429  1  0.34320160  0.52538140  0.62074140  1
  O  O430  1  0.97461860  0.62074140  0.15679840  1
  O  O431  1  0.02538140  0.62074140  0.84320160  1
  O  O432  1  0.15679840  0.87925860  0.47461860  1
  O  O433  1  0.62074140  0.65679840  0.47461860  1
  O  O434  1  0.84320160  0.12074140  0.47461860  1
  O  O435  1  0.37925860  0.34320160  0.47461860  1
  O  O436  1  0.15679840  0.02538140  0.37925860  1
  O  O437  1  0.15679840  0.12074140  0.52538140  1
  O  O438  1  0.15679840  0.97461860  0.62074140  1
  O  O439  1  0.47461860  0.87925860  0.84320160  1
  O  O440  1  0.84320160  0.87925860  0.52538140  1
  O  O441  1  0.52538140  0.87925860  0.15679840  1
  O  O442  1  0.47461860  0.65679840  0.37925860  1
  O  O443  1  0.37925860  0.97461860  0.15679840  1
  O  O444  1  0.62074140  0.02538140  0.15679840  1
  O  O445  1  0.47461860  0.34320160  0.62074140  1
  O  O446  1  0.62074140  0.97461860  0.84320160  1
  O  O447  1  0.52538140  0.34320160  0.37925860  1
  O  O448  1  0.52538140  0.65679840  0.62074140  1
  O  O449  1  0.37925860  0.02538140  0.84320160  1
  O  O450  1  0.37925860  0.65679840  0.52538140  1
  O  O451  1  0.62074140  0.34320160  0.52538140  1
  O  O452  1  0.84320160  0.97461860  0.37925860  1
  O  O453  1  0.84320160  0.02538140  0.62074140  1
  O  O454  1  0.47461860  0.12074140  0.15679840  1
  O  O455  1  0.52538140  0.12074140  0.84320160  1
  O  O456  1  0.15679840  0.37925860  0.97461860  1
  O  O457  1  0.62074140  0.15679840  0.97461860  1
  O  O458  1  0.84320160  0.62074140  0.97461860  1
  O  O459  1  0.37925860  0.84320160  0.97461860  1
  O  O460  1  0.15679840  0.52538140  0.87925860  1
  O  O461  1  0.15679840  0.62074140  0.02538140  1
  O  O462  1  0.15679840  0.47461860  0.12074140  1
  O  O463  1  0.47461860  0.37925860  0.34320160  1
  O  O464  1  0.84320160  0.37925860  0.02538140  1
  O  O465  1  0.52538140  0.37925860  0.65679840  1
  O  O466  1  0.47461860  0.15679840  0.87925860  1
  O  O467  1  0.37925860  0.47461860  0.65679840  1
  O  O468  1  0.62074140  0.52538140  0.65679840  1
  O  O469  1  0.47461860  0.84320160  0.12074140  1
  O  O470  1  0.62074140  0.47461860  0.34320160  1
  O  O471  1  0.52538140  0.84320160  0.87925860  1
  O  O472  1  0.52538140  0.15679840  0.12074140  1
  O  O473  1  0.37925860  0.52538140  0.34320160  1
  O  O474  1  0.37925860  0.15679840  0.02538140  1
  O  O475  1  0.62074140  0.84320160  0.02538140  1
  O  O476  1  0.84320160  0.47461860  0.87925860  1
  O  O477  1  0.84320160  0.52538140  0.12074140  1
  O  O478  1  0.47461860  0.62074140  0.65679840  1
  O  O479  1  0.52538140  0.62074140  0.34320160  1
  C  C576  1  0.35465180  0.10159150  0.03449170  1
  C  C577  1  0.89840850  0.35465180  0.03449170  1
  C  C578  1  0.64534820  0.89840850  0.03449170  1
  C  C579  1  0.10159150  0.64534820  0.03449170  1
  C  C580  1  0.35465180  0.96550830  0.10159150  1
  C  C581  1  0.35465180  0.89840850  0.96550830  1
  C  C582  1  0.35465180  0.03449170  0.89840850  1
  C  C583  1  0.03449170  0.10159150  0.64534820  1
  C  C584  1  0.64534820  0.10159150  0.96550830  1
  C  C585  1  0.96550830  0.10159150  0.35465180  1
  C  C586  1  0.03449170  0.35465180  0.10159150  1
  C  C587  1  0.10159150  0.03449170  0.35465180  1
  C  C588  1  0.89840850  0.96550830  0.35465180  1
  C  C589  1  0.03449170  0.64534820  0.89840850  1
  C  C590  1  0.89840850  0.03449170  0.64534820  1
  C  C591  1  0.96550830  0.64534820  0.10159150  1
  C  C592  1  0.96550830  0.35465180  0.89840850  1
  C  C593  1  0.10159150  0.96550830  0.64534820  1
  C  C594  1  0.10159150  0.35465180  0.96550830  1
  C  C595  1  0.89840850  0.64534820  0.96550830  1
  C  C596  1  0.64534820  0.03449170  0.10159150  1
  C  C597  1  0.64534820  0.96550830  0.89840850  1
  C  C598  1  0.03449170  0.89840850  0.35465180  1
  C  C599  1  0.96550830  0.89840850  0.64534820  1
  C  C600  1  0.35465180  0.60159150  0.53449170  1
  C  C601  1  0.89840850  0.85465180  0.53449170  1
  C  C602  1  0.64534820  0.39840850  0.53449170  1
  C  C603  1  0.10159150  0.14534820  0.53449170  1
  C  C604  1  0.35465180  0.46550830  0.60159150  1
  C  C605  1  0.35465180  0.39840850  0.46550830  1
  C  C606  1  0.35465180  0.53449170  0.39840850  1
  C  C607  1  0.03449170  0.60159150  0.14534820  1
  C  C608  1  0.64534820  0.60159150  0.46550830  1
  C  C609  1  0.96550830  0.60159150  0.85465180  1
  C  C610  1  0.03449170  0.85465180  0.60159150  1
  C  C611  1  0.10159150  0.53449170  0.85465180  1
  C  C612  1  0.89840850  0.46550830  0.85465180  1
  C  C613  1  0.03449170  0.14534820  0.39840850  1
  C  C614  1  0.89840850  0.53449170  0.14534820  1
  C  C615  1  0.96550830  0.14534820  0.60159150  1
  C  C616  1  0.96550830  0.85465180  0.39840850  1
  C  C617  1  0.10159150  0.46550830  0.14534820  1
  C  C618  1  0.10159150  0.85465180  0.46550830  1
  C  C619  1  0.89840850  0.14534820  0.46550830  1
  C  C620  1  0.64534820  0.53449170  0.60159150  1
  C  C621  1  0.64534820  0.46550830  0.39840850  1
  C  C622  1  0.03449170  0.39840850  0.85465180  1
  C  C623  1  0.96550830  0.39840850  0.14534820  1
  C  C624  1  0.85465180  0.10159150  0.53449170  1
  C  C625  1  0.39840850  0.35465180  0.53449170  1
  C  C626  1  0.14534820  0.89840850  0.53449170  1
  C  C627  1  0.60159150  0.64534820  0.53449170  1
  C  C628  1  0.85465180  0.96550830  0.60159150  1
  C  C629  1  0.85465180  0.89840850  0.46550830  1
  C  C630  1  0.85465180  0.03449170  0.39840850  1
  C  C631  1  0.53449170  0.10159150  0.14534820  1
  C  C632  1  0.14534820  0.10159150  0.46550830  1
  C  C633  1  0.46550830  0.10159150  0.85465180  1
  C  C634  1  0.53449170  0.35465180  0.60159150  1
  C  C635  1  0.60159150  0.03449170  0.85465180  1
  C  C636  1  0.39840850  0.96550830  0.85465180  1
  C  C637  1  0.53449170  0.64534820  0.39840850  1
  C  C638  1  0.39840850  0.03449170  0.14534820  1
  C  C639  1  0.46550830  0.64534820  0.60159150  1
  C  C640  1  0.46550830  0.35465180  0.39840850  1
  C  C641  1  0.60159150  0.96550830  0.14534820  1
  C  C642  1  0.60159150  0.35465180  0.46550830  1
  C  C643  1  0.39840850  0.64534820  0.46550830  1
  C  C644  1  0.14534820  0.03449170  0.60159150  1
  C  C645  1  0.14534820  0.96550830  0.39840850  1
  C  C646  1  0.53449170  0.89840850  0.85465180  1
  C  C647  1  0.46550830  0.89840850  0.14534820  1
  C  C648  1  0.85465180  0.60159150  0.03449170  1
  C  C649  1  0.39840850  0.85465180  0.03449170  1
  C  C650  1  0.14534820  0.39840850  0.03449170  1
  C  C651  1  0.60159150  0.14534820  0.03449170  1
  C  C652  1  0.85465180  0.46550830  0.10159150  1
  C  C653  1  0.85465180  0.39840850  0.96550830  1
  C  C654  1  0.85465180  0.53449170  0.89840850  1
  C  C655  1  0.53449170  0.60159150  0.64534820  1
  C  C656  1  0.14534820  0.60159150  0.96550830  1
  C  C657  1  0.46550830  0.60159150  0.35465180  1
  C  C658  1  0.53449170  0.85465180  0.10159150  1
  C  C659  1  0.60159150  0.53449170  0.35465180  1
  C  C660  1  0.39840850  0.46550830  0.35465180  1
  C  C661  1  0.53449170  0.14534820  0.89840850  1
  C  C662  1  0.39840850  0.53449170  0.64534820  1
  C  C663  1  0.46550830  0.14534820  0.10159150  1
  C  C664  1  0.46550830  0.85465180  0.89840850  1
  C  C665  1  0.60159150  0.46550830  0.64534820  1
  C  C666  1  0.60159150  0.85465180  0.96550830  1
  C  C667  1  0.39840850  0.14534820  0.96550830  1
  C  C668  1  0.14534820  0.53449170  0.10159150  1
  C  C669  1  0.14534820  0.46550830  0.89840850  1
  C  C670  1  0.53449170  0.39840850  0.35465180  1
  C  C671  1  0.46550830  0.39840850  0.64534820  1
  C  C672  1  0.64534820  0.89840850  0.96550830  1
  C  C673  1  0.10159150  0.64534820  0.96550830  1
  C  C674  1  0.35465180  0.10159150  0.96550830  1
  C  C675  1  0.89840850  0.35465180  0.96550830  1
  C  C676  1  0.64534820  0.03449170  0.89840850  1
  C  C677  1  0.64534820  0.10159150  0.03449170  1
  C  C678  1  0.64534820  0.96550830  0.10159150  1
  C  C679  1  0.96550830  0.89840850  0.35465180  1
  C  C680  1  0.35465180  0.89840850  0.03449170  1
  C  C681  1  0.03449170  0.89840850  0.64534820  1
  C  C682  1  0.96550830  0.64534820  0.89840850  1
  C  C683  1  0.89840850  0.96550830  0.64534820  1
  C  C684  1  0.10159150  0.03449170  0.64534820  1
  C  C685  1  0.96550830  0.35465180  0.10159150  1
  C  C686  1  0.10159150  0.96550830  0.35465180  1
  C  C687  1  0.03449170  0.35465180  0.89840850  1
  C  C688  1  0.03449170  0.64534820  0.10159150  1
  C  C689  1  0.89840850  0.03449170  0.35465180  1
  C  C690  1  0.89840850  0.64534820  0.03449170  1
  C  C691  1  0.10159150  0.35465180  0.03449170  1
  C  C692  1  0.35465180  0.96550830  0.89840850  1
  C  C693  1  0.35465180  0.03449170  0.10159150  1
  C  C694  1  0.96550830  0.10159150  0.64534820  1
  C  C695  1  0.03449170  0.10159150  0.35465180  1
  C  C696  1  0.64534820  0.39840850  0.46550830  1
  C  C697  1  0.10159150  0.14534820  0.46550830  1
  C  C698  1  0.35465180  0.60159150  0.46550830  1
  C  C699  1  0.89840850  0.85465180  0.46550830  1
  C  C700  1  0.64534820  0.53449170  0.39840850  1
  C  C701  1  0.64534820  0.60159150  0.53449170  1
  C  C702  1  0.64534820  0.46550830  0.60159150  1
  C  C703  1  0.96550830  0.39840850  0.85465180  1
  C  C704  1  0.35465180  0.39840850  0.53449170  1
  C  C705  1  0.03449170  0.39840850  0.14534820  1
  C  C706  1  0.96550830  0.14534820  0.39840850  1
  C  C707  1  0.89840850  0.46550830  0.14534820  1
  C  C708  1  0.10159150  0.53449170  0.14534820  1
  C  C709  1  0.96550830  0.85465180  0.60159150  1
  C  C710  1  0.10159150  0.46550830  0.85465180  1
  C  C711  1  0.03449170  0.85465180  0.39840850  1
  C  C712  1  0.03449170  0.14534820  0.60159150  1
  C  C713  1  0.89840850  0.53449170  0.85465180  1
  C  C714  1  0.89840850  0.14534820  0.53449170  1
  C  C715  1  0.10159150  0.85465180  0.53449170  1
  C  C716  1  0.35465180  0.46550830  0.39840850  1
  C  C717  1  0.35465180  0.53449170  0.60159150  1
  C  C718  1  0.96550830  0.60159150  0.14534820  1
  C  C719  1  0.03449170  0.60159150  0.85465180  1
  C  C720  1  0.14534820  0.89840850  0.46550830  1
  C  C721  1  0.60159150  0.64534820  0.46550830  1
  C  C722  1  0.85465180  0.10159150  0.46550830  1
  C  C723  1  0.39840850  0.35465180  0.46550830  1
  C  C724  1  0.14534820  0.03449170  0.39840850  1
  C  C725  1  0.14534820  0.10159150  0.53449170  1
  C  C726  1  0.14534820  0.96550830  0.60159150  1
  C  C727  1  0.46550830  0.89840850  0.85465180  1
  C  C728  1  0.85465180  0.89840850  0.53449170  1
  C  C729  1  0.53449170  0.89840850  0.14534820  1
  C  C730  1  0.46550830  0.64534820  0.39840850  1
  C  C731  1  0.39840850  0.96550830  0.14534820  1
  C  C732  1  0.60159150  0.03449170  0.14534820  1
  C  C733  1  0.46550830  0.35465180  0.60159150  1
  C  C734  1  0.60159150  0.96550830  0.85465180  1
  C  C735  1  0.53449170  0.35465180  0.39840850  1
  C  C736  1  0.53449170  0.64534820  0.60159150  1
  C  C737  1  0.39840850  0.03449170  0.85465180  1
  C  C738  1  0.39840850  0.64534820  0.53449170  1
  C  C739  1  0.60159150  0.35465180  0.53449170  1
  C  C740  1  0.85465180  0.96550830  0.39840850  1
  C  C741  1  0.85465180  0.03449170  0.60159150  1
  C  C742  1  0.46550830  0.10159150  0.14534820  1
  C  C743  1  0.53449170  0.10159150  0.85465180  1
  C  C744  1  0.14534820  0.39840850  0.96550830  1
  C  C745  1  0.60159150  0.14534820  0.96550830  1
  C  C746  1  0.85465180  0.60159150  0.96550830  1
  C  C747  1  0.39840850  0.85465180  0.96550830  1
  C  C748  1  0.14534820  0.53449170  0.89840850  1
  C  C749  1  0.14534820  0.60159150  0.03449170  1
  C  C750  1  0.14534820  0.46550830  0.10159150  1
  C  C751  1  0.46550830  0.39840850  0.35465180  1
  C  C752  1  0.85465180  0.39840850  0.03449170  1
  C  C753  1  0.53449170  0.39840850  0.64534820  1
  C  C754  1  0.46550830  0.14534820  0.89840850  1
  C  C755  1  0.39840850  0.46550830  0.64534820  1
  C  C756  1  0.60159150  0.53449170  0.64534820  1
  C  C757  1  0.46550830  0.85465180  0.10159150  1
  C  C758  1  0.60159150  0.46550830  0.35465180  1
  C  C759  1  0.53449170  0.85465180  0.89840850  1
  C  C760  1  0.53449170  0.14534820  0.10159150  1
  C  C761  1  0.39840850  0.53449170  0.35465180  1
  C  C762  1  0.39840850  0.14534820  0.03449170  1
  C  C763  1  0.60159150  0.85465180  0.03449170  1
  C  C764  1  0.85465180  0.46550830  0.89840850  1
  C  C765  1  0.85465180  0.53449170  0.10159150  1
  C  C766  1  0.46550830  0.60159150  0.64534820  1
  C  C767  1  0.53449170  0.60159150  0.35465180  1
  C  C768  1  0.35210190  0.06643000  0.06644190  1
  C  C769  1  0.93357000  0.35210190  0.06644190  1
  C  C770  1  0.64789810  0.93357000  0.06644190  1
  C  C771  1  0.06643000  0.64789810  0.06644190  1
  C  C772  1  0.35210190  0.93355810  0.06643000  1
  C  C773  1  0.35210190  0.93357000  0.93355810  1
  C  C774  1  0.35210190  0.06644190  0.93357000  1
  C  C775  1  0.06644190  0.06643000  0.64789810  1
  C  C776  1  0.64789810  0.06643000  0.93355810  1
  C  C777  1  0.93355810  0.06643000  0.35210190  1
  C  C778  1  0.06644190  0.35210190  0.06643000  1
  C  C779  1  0.06643000  0.06644190  0.35210190  1
  C  C780  1  0.93357000  0.93355810  0.35210190  1
  C  C781  1  0.06644190  0.64789810  0.93357000  1
  C  C782  1  0.93357000  0.06644190  0.64789810  1
  C  C783  1  0.93355810  0.64789810  0.06643000  1
  C  C784  1  0.93355810  0.35210190  0.93357000  1
  C  C785  1  0.06643000  0.93355810  0.64789810  1
  C  C786  1  0.06643000  0.35210190  0.93355810  1
  C  C787  1  0.93357000  0.64789810  0.93355810  1
  C  C788  1  0.64789810  0.06644190  0.06643000  1
  C  C789  1  0.64789810  0.93355810  0.93357000  1
  C  C790  1  0.06644190  0.93357000  0.35210190  1
  C  C791  1  0.93355810  0.93357000  0.64789810  1
  C  C792  1  0.35210190  0.56643000  0.56644190  1
  C  C793  1  0.93357000  0.85210190  0.56644190  1
  C  C794  1  0.64789810  0.43357000  0.56644190  1
  C  C795  1  0.06643000  0.14789810  0.56644190  1
  C  C796  1  0.35210190  0.43355810  0.56643000  1
  C  C797  1  0.35210190  0.43357000  0.43355810  1
  C  C798  1  0.35210190  0.56644190  0.43357000  1
  C  C799  1  0.06644190  0.56643000  0.14789810  1
  C  C800  1  0.64789810  0.56643000  0.43355810  1
  C  C801  1  0.93355810  0.56643000  0.85210190  1
  C  C802  1  0.06644190  0.85210190  0.56643000  1
  C  C803  1  0.06643000  0.56644190  0.85210190  1
  C  C804  1  0.93357000  0.43355810  0.85210190  1
  C  C805  1  0.06644190  0.14789810  0.43357000  1
  C  C806  1  0.93357000  0.56644190  0.14789810  1
  C  C807  1  0.93355810  0.14789810  0.56643000  1
  C  C808  1  0.93355810  0.85210190  0.43357000  1
  C  C809  1  0.06643000  0.43355810  0.14789810  1
  C  C810  1  0.06643000  0.85210190  0.43355810  1
  C  C811  1  0.93357000  0.14789810  0.43355810  1
  C  C812  1  0.64789810  0.56644190  0.56643000  1
  C  C813  1  0.64789810  0.43355810  0.43357000  1
  C  C814  1  0.06644190  0.43357000  0.85210190  1
  C  C815  1  0.93355810  0.43357000  0.14789810  1
  C  C816  1  0.85210190  0.06643000  0.56644190  1
  C  C817  1  0.43357000  0.35210190  0.56644190  1
  C  C818  1  0.14789810  0.93357000  0.56644190  1
  C  C819  1  0.56643000  0.64789810  0.56644190  1
  C  C820  1  0.85210190  0.93355810  0.56643000  1
  C  C821  1  0.85210190  0.93357000  0.43355810  1
  C  C822  1  0.85210190  0.06644190  0.43357000  1
  C  C823  1  0.56644190  0.06643000  0.14789810  1
  C  C824  1  0.14789810  0.06643000  0.43355810  1
  C  C825  1  0.43355810  0.06643000  0.85210190  1
  C  C826  1  0.56644190  0.35210190  0.56643000  1
  C  C827  1  0.56643000  0.06644190  0.85210190  1
  C  C828  1  0.43357000  0.93355810  0.85210190  1
  C  C829  1  0.56644190  0.64789810  0.43357000  1
  C  C830  1  0.43357000  0.06644190  0.14789810  1
  C  C831  1  0.43355810  0.64789810  0.56643000  1
  C  C832  1  0.43355810  0.35210190  0.43357000  1
  C  C833  1  0.56643000  0.93355810  0.14789810  1
  C  C834  1  0.56643000  0.35210190  0.43355810  1
  C  C835  1  0.43357000  0.64789810  0.43355810  1
  C  C836  1  0.14789810  0.06644190  0.56643000  1
  C  C837  1  0.14789810  0.93355810  0.43357000  1
  C  C838  1  0.56644190  0.93357000  0.85210190  1
  C  C839  1  0.43355810  0.93357000  0.14789810  1
  C  C840  1  0.85210190  0.56643000  0.06644190  1
  C  C841  1  0.43357000  0.85210190  0.06644190  1
  C  C842  1  0.14789810  0.43357000  0.06644190  1
  C  C843  1  0.56643000  0.14789810  0.06644190  1
  C  C844  1  0.85210190  0.43355810  0.06643000  1
  C  C845  1  0.85210190  0.43357000  0.93355810  1
  C  C846  1  0.85210190  0.56644190  0.93357000  1
  C  C847  1  0.56644190  0.56643000  0.64789810  1
  C  C848  1  0.14789810  0.56643000  0.93355810  1
  C  C849  1  0.43355810  0.56643000  0.35210190  1
  C  C850  1  0.56644190  0.85210190  0.06643000  1
  C  C851  1  0.56643000  0.56644190  0.35210190  1
  C  C852  1  0.43357000  0.43355810  0.35210190  1
  C  C853  1  0.56644190  0.14789810  0.93357000  1
  C  C854  1  0.43357000  0.56644190  0.64789810  1
  C  C855  1  0.43355810  0.14789810  0.06643000  1
  C  C856  1  0.43355810  0.85210190  0.93357000  1
  C  C857  1  0.56643000  0.43355810  0.64789810  1
  C  C858  1  0.56643000  0.85210190  0.93355810  1
  C  C859  1  0.43357000  0.14789810  0.93355810  1
  C  C860  1  0.14789810  0.56644190  0.06643000  1
  C  C861  1  0.14789810  0.43355810  0.93357000  1
  C  C862  1  0.56644190  0.43357000  0.35210190  1
  C  C863  1  0.43355810  0.43357000  0.64789810  1
  H  H864  1  0.36850000  0.06120000  0.06120000  1
  H  H865  1  0.93880000  0.36850000  0.06120000  1
  H  H866  1  0.63150000  0.93880000  0.06120000  1
  H  H867  1  0.06120000  0.63150000  0.06120000  1
  H  H868  1  0.36850000  0.93880000  0.06120000  1
  H  H869  1  0.36850000  0.93880000  0.93880000  1
  H  H870  1  0.36850000  0.06120000  0.93880000  1
  H  H871  1  0.06120000  0.06120000  0.63150000  1
  H  H872  1  0.63150000  0.06120000  0.93880000  1
  H  H873  1  0.93880000  0.06120000  0.36850000  1
  H  H874  1  0.06120000  0.36850000  0.06120000  1
  H  H875  1  0.06120000  0.06120000  0.36850000  1
  H  H876  1  0.93880000  0.93880000  0.36850000  1
  H  H877  1  0.06120000  0.63150000  0.93880000  1
  H  H878  1  0.93880000  0.06120000  0.63150000  1
  H  H879  1  0.93880000  0.63150000  0.06120000  1
  H  H880  1  0.93880000  0.36850000  0.93880000  1
  H  H881  1  0.06120000  0.93880000  0.63150000  1
  H  H882  1  0.06120000  0.36850000  0.93880000  1
  H  H883  1  0.93880000  0.63150000  0.93880000  1
  H  H884  1  0.63150000  0.06120000  0.06120000  1
  H  H885  1  0.63150000  0.93880000  0.93880000  1
  H  H886  1  0.06120000  0.93880000  0.36850000  1
  H  H887  1  0.93880000  0.93880000  0.63150000  1
  H  H888  1  0.36850000  0.56120000  0.56120000  1
  H  H889  1  0.93880000  0.86850000  0.56120000  1
  H  H890  1  0.63150000  0.43880000  0.56120000  1
  H  H891  1  0.06120000  0.13150000  0.56120000  1
  H  H892  1  0.36850000  0.43880000  0.56120000  1
  H  H893  1  0.36850000  0.43880000  0.43880000  1
  H  H894  1  0.36850000  0.56120000  0.43880000  1
  H  H895  1  0.06120000  0.56120000  0.13150000  1
  H  H896  1  0.63150000  0.56120000  0.43880000  1
  H  H897  1  0.93880000  0.56120000  0.86850000  1
  H  H898  1  0.06120000  0.86850000  0.56120000  1
  H  H899  1  0.06120000  0.56120000  0.86850000  1
  H  H900  1  0.93880000  0.43880000  0.86850000  1
  H  H901  1  0.06120000  0.13150000  0.43880000  1
  H  H902  1  0.93880000  0.56120000  0.13150000  1
  H  H903  1  0.93880000  0.13150000  0.56120000  1
  H  H904  1  0.93880000  0.86850000  0.43880000  1
  H  H905  1  0.06120000  0.43880000  0.13150000  1
  H  H906  1  0.06120000  0.86850000  0.43880000  1
  H  H907  1  0.93880000  0.13150000  0.43880000  1
  H  H908  1  0.63150000  0.56120000  0.56120000  1
  H  H909  1  0.63150000  0.43880000  0.43880000  1
  H  H910  1  0.06120000  0.43880000  0.86850000  1
  H  H911  1  0.93880000  0.43880000  0.13150000  1
  H  H912  1  0.86850000  0.06120000  0.56120000  1
  H  H913  1  0.43880000  0.36850000  0.56120000  1
  H  H914  1  0.13150000  0.93880000  0.56120000  1
  H  H915  1  0.56120000  0.63150000  0.56120000  1
  H  H916  1  0.86850000  0.93880000  0.56120000  1
  H  H917  1  0.86850000  0.93880000  0.43880000  1
  H  H918  1  0.86850000  0.06120000  0.43880000  1
  H  H919  1  0.56120000  0.06120000  0.13150000  1
  H  H920  1  0.13150000  0.06120000  0.43880000  1
  H  H921  1  0.43880000  0.06120000  0.86850000  1
  H  H922  1  0.56120000  0.36850000  0.56120000  1
  H  H923  1  0.56120000  0.06120000  0.86850000  1
  H  H924  1  0.43880000  0.93880000  0.86850000  1
  H  H925  1  0.56120000  0.63150000  0.43880000  1
  H  H926  1  0.43880000  0.06120000  0.13150000  1
  H  H927  1  0.43880000  0.63150000  0.56120000  1
  H  H928  1  0.43880000  0.36850000  0.43880000  1
  H  H929  1  0.56120000  0.93880000  0.13150000  1
  H  H930  1  0.56120000  0.36850000  0.43880000  1
  H  H931  1  0.43880000  0.63150000  0.43880000  1
  H  H932  1  0.13150000  0.06120000  0.56120000  1
  H  H933  1  0.13150000  0.93880000  0.43880000  1
  H  H934  1  0.56120000  0.93880000  0.86850000  1
  H  H935  1  0.43880000  0.93880000  0.13150000  1
  H  H936  1  0.86850000  0.56120000  0.06120000  1
  H  H937  1  0.43880000  0.86850000  0.06120000  1
  H  H938  1  0.13150000  0.43880000  0.06120000  1
  H  H939  1  0.56120000  0.13150000  0.06120000  1
  H  H940  1  0.86850000  0.43880000  0.06120000  1
  H  H941  1  0.86850000  0.43880000  0.93880000  1
  H  H942  1  0.86850000  0.56120000  0.93880000  1
  H  H943  1  0.56120000  0.56120000  0.63150000  1
  H  H944  1  0.13150000  0.56120000  0.93880000  1
  H  H945  1  0.43880000  0.56120000  0.36850000  1
  H  H946  1  0.56120000  0.86850000  0.06120000  1
  H  H947  1  0.56120000  0.56120000  0.36850000  1
  H  H948  1  0.43880000  0.43880000  0.36850000  1
  H  H949  1  0.56120000  0.13150000  0.93880000  1
  H  H950  1  0.43880000  0.56120000  0.63150000  1
  H  H951  1  0.43880000  0.13150000  0.06120000  1
  H  H952  1  0.43880000  0.86850000  0.93880000  1
  H  H953  1  0.56120000  0.43880000  0.63150000  1
  H  H954  1  0.56120000  0.86850000  0.93880000  1
  H  H955  1  0.43880000  0.13150000  0.93880000  1
  H  H956  1  0.13150000  0.56120000  0.06120000  1
  H  H957  1  0.13150000  0.43880000  0.93880000  1
  H  H958  1  0.56120000  0.43880000  0.36850000  1
  H  H959  1  0.43880000  0.43880000  0.63150000  1
  C  C960  1  0.34140180  0.08648190  0.05312000  1
  C  C961  1  0.91351810  0.34140180  0.05312000  1
  C  C962  1  0.65859820  0.91351810  0.05312000  1
  C  C963  1  0.08648190  0.65859820  0.05312000  1
  C  C964  1  0.34140180  0.94688000  0.08648190  1
  C  C965  1  0.34140180  0.91351810  0.94688000  1
  C  C966  1  0.34140180  0.05312000  0.91351810  1
  C  C967  1  0.05312000  0.08648190  0.65859820  1
  C  C968  1  0.65859820  0.08648190  0.94688000  1
  C  C969  1  0.94688000  0.08648190  0.34140180  1
  C  C970  1  0.05312000  0.34140180  0.08648190  1
  C  C971  1  0.08648190  0.05312000  0.34140180  1
  C  C972  1  0.91351810  0.94688000  0.34140180  1
  C  C973  1  0.05312000  0.65859820  0.91351810  1
  C  C974  1  0.91351810  0.05312000  0.65859820  1
  C  C975  1  0.94688000  0.65859820  0.08648190  1
  C  C976  1  0.94688000  0.34140180  0.91351810  1
  C  C977  1  0.08648190  0.94688000  0.65859820  1
  C  C978  1  0.08648190  0.34140180  0.94688000  1
  C  C979  1  0.91351810  0.65859820  0.94688000  1
  C  C980  1  0.65859820  0.05312000  0.08648190  1
  C  C981  1  0.65859820  0.94688000  0.91351810  1
  C  C982  1  0.05312000  0.91351810  0.34140180  1
  C  C983  1  0.94688000  0.91351810  0.65859820  1
  C  C984  1  0.34140180  0.58648190  0.55312000  1
  C  C985  1  0.91351810  0.84140180  0.55312000  1
  C  C986  1  0.65859820  0.41351810  0.55312000  1
  C  C987  1  0.08648190  0.15859820  0.55312000  1
  C  C988  1  0.34140180  0.44688000  0.58648190  1
  C  C989  1  0.34140180  0.41351810  0.44688000  1
  C  C990  1  0.34140180  0.55312000  0.41351810  1
  C  C991  1  0.05312000  0.58648190  0.15859820  1
  C  C992  1  0.65859820  0.58648190  0.44688000  1
  C  C993  1  0.94688000  0.58648190  0.84140180  1
  C  C994  1  0.05312000  0.84140180  0.58648190  1
  C  C995  1  0.08648190  0.55312000  0.84140180  1
  C  C996  1  0.91351810  0.44688000  0.84140180  1
  C  C997  1  0.05312000  0.15859820  0.41351810  1
  C  C998  1  0.91351810  0.55312000  0.15859820  1
  C  C999  1  0.94688000  0.15859820  0.58648190  1
  C  C1000  1  0.94688000  0.84140180  0.41351810  1
  C  C1001  1  0.08648190  0.44688000  0.15859820  1
  C  C1002  1  0.08648190  0.84140180  0.44688000  1
  C  C1003  1  0.91351810  0.15859820  0.44688000  1
  C  C1004  1  0.65859820  0.55312000  0.58648190  1
  C  C1005  1  0.65859820  0.44688000  0.41351810  1
  C  C1006  1  0.05312000  0.41351810  0.84140180  1
  C  C1007  1  0.94688000  0.41351810  0.15859820  1
  C  C1008  1  0.84140180  0.08648190  0.55312000  1
  C  C1009  1  0.41351810  0.34140180  0.55312000  1
  C  C1010  1  0.15859820  0.91351810  0.55312000  1
  C  C1011  1  0.58648190  0.65859820  0.55312000  1
  C  C1012  1  0.84140180  0.94688000  0.58648190  1
  C  C1013  1  0.84140180  0.91351810  0.44688000  1
  C  C1014  1  0.84140180  0.05312000  0.41351810  1
  C  C1015  1  0.55312000  0.08648190  0.15859820  1
  C  C1016  1  0.15859820  0.08648190  0.44688000  1
  C  C1017  1  0.44688000  0.08648190  0.84140180  1
  C  C1018  1  0.55312000  0.34140180  0.58648190  1
  C  C1019  1  0.58648190  0.05312000  0.84140180  1
  C  C1020  1  0.41351810  0.94688000  0.84140180  1
  C  C1021  1  0.55312000  0.65859820  0.41351810  1
  C  C1022  1  0.41351810  0.05312000  0.15859820  1
  C  C1023  1  0.44688000  0.65859820  0.58648190  1
  C  C1024  1  0.44688000  0.34140180  0.41351810  1
  C  C1025  1  0.58648190  0.94688000  0.15859820  1
  C  C1026  1  0.58648190  0.34140180  0.44688000  1
  C  C1027  1  0.41351810  0.65859820  0.44688000  1
  C  C1028  1  0.15859820  0.05312000  0.58648190  1
  C  C1029  1  0.15859820  0.94688000  0.41351810  1
  C  C1030  1  0.55312000  0.91351810  0.84140180  1
  C  C1031  1  0.44688000  0.91351810  0.15859820  1
  C  C1032  1  0.84140180  0.58648190  0.05312000  1
  C  C1033  1  0.41351810  0.84140180  0.05312000  1
  C  C1034  1  0.15859820  0.41351810  0.05312000  1
  C  C1035  1  0.58648190  0.15859820  0.05312000  1
  C  C1036  1  0.84140180  0.44688000  0.08648190  1
  C  C1037  1  0.84140180  0.41351810  0.94688000  1
  C  C1038  1  0.84140180  0.55312000  0.91351810  1
  C  C1039  1  0.55312000  0.58648190  0.65859820  1
  C  C1040  1  0.15859820  0.58648190  0.94688000  1
  C  C1041  1  0.44688000  0.58648190  0.34140180  1
  C  C1042  1  0.55312000  0.84140180  0.08648190  1
  C  C1043  1  0.58648190  0.55312000  0.34140180  1
  C  C1044  1  0.41351810  0.44688000  0.34140180  1
  C  C1045  1  0.55312000  0.15859820  0.91351810  1
  C  C1046  1  0.41351810  0.55312000  0.65859820  1
  C  C1047  1  0.44688000  0.15859820  0.08648190  1
  C  C1048  1  0.44688000  0.84140180  0.91351810  1
  C  C1049  1  0.58648190  0.44688000  0.65859820  1
  C  C1050  1  0.58648190  0.84140180  0.94688000  1
  C  C1051  1  0.41351810  0.15859820  0.94688000  1
  C  C1052  1  0.15859820  0.55312000  0.08648190  1
  C  C1053  1  0.15859820  0.44688000  0.91351810  1
  C  C1054  1  0.55312000  0.41351810  0.34140180  1
  C  C1055  1  0.44688000  0.41351810  0.65859820  1
  C  C1056  1  0.65859820  0.91351810  0.94688000  1
  C  C1057  1  0.08648190  0.65859820  0.94688000  1
  C  C1058  1  0.34140180  0.08648190  0.94688000  1
  C  C1059  1  0.91351810  0.34140180  0.94688000  1
  C  C1060  1  0.65859820  0.05312000  0.91351810  1
  C  C1061  1  0.65859820  0.08648190  0.05312000  1
  C  C1062  1  0.65859820  0.94688000  0.08648190  1
  C  C1063  1  0.94688000  0.91351810  0.34140180  1
  C  C1064  1  0.34140180  0.91351810  0.05312000  1
  C  C1065  1  0.05312000  0.91351810  0.65859820  1
  C  C1066  1  0.94688000  0.65859820  0.91351810  1
  C  C1067  1  0.91351810  0.94688000  0.65859820  1
  C  C1068  1  0.08648190  0.05312000  0.65859820  1
  C  C1069  1  0.94688000  0.34140180  0.08648190  1
  C  C1070  1  0.08648190  0.94688000  0.34140180  1
  C  C1071  1  0.05312000  0.34140180  0.91351810  1
  C  C1072  1  0.05312000  0.65859820  0.08648190  1
  C  C1073  1  0.91351810  0.05312000  0.34140180  1
  C  C1074  1  0.91351810  0.65859820  0.05312000  1
  C  C1075  1  0.08648190  0.34140180  0.05312000  1
  C  C1076  1  0.34140180  0.94688000  0.91351810  1
  C  C1077  1  0.34140180  0.05312000  0.08648190  1
  C  C1078  1  0.94688000  0.08648190  0.65859820  1
  C  C1079  1  0.05312000  0.08648190  0.34140180  1
  C  C1080  1  0.65859820  0.41351810  0.44688000  1
  C  C1081  1  0.08648190  0.15859820  0.44688000  1
  C  C1082  1  0.34140180  0.58648190  0.44688000  1
  C  C1083  1  0.91351810  0.84140180  0.44688000  1
  C  C1084  1  0.65859820  0.55312000  0.41351810  1
  C  C1085  1  0.65859820  0.58648190  0.55312000  1
  C  C1086  1  0.65859820  0.44688000  0.58648190  1
  C  C1087  1  0.94688000  0.41351810  0.84140180  1
  C  C1088  1  0.34140180  0.41351810  0.55312000  1
  C  C1089  1  0.05312000  0.41351810  0.15859820  1
  C  C1090  1  0.94688000  0.15859820  0.41351810  1
  C  C1091  1  0.91351810  0.44688000  0.15859820  1
  C  C1092  1  0.08648190  0.55312000  0.15859820  1
  C  C1093  1  0.94688000  0.84140180  0.58648190  1
  C  C1094  1  0.08648190  0.44688000  0.84140180  1
  C  C1095  1  0.05312000  0.84140180  0.41351810  1
  C  C1096  1  0.05312000  0.15859820  0.58648190  1
  C  C1097  1  0.91351810  0.55312000  0.84140180  1
  C  C1098  1  0.91351810  0.15859820  0.55312000  1
  C  C1099  1  0.08648190  0.84140180  0.55312000  1
  C  C1100  1  0.34140180  0.44688000  0.41351810  1
  C  C1101  1  0.34140180  0.55312000  0.58648190  1
  C  C1102  1  0.94688000  0.58648190  0.15859820  1
  C  C1103  1  0.05312000  0.58648190  0.84140180  1
  C  C1104  1  0.15859820  0.91351810  0.44688000  1
  C  C1105  1  0.58648190  0.65859820  0.44688000  1
  C  C1106  1  0.84140180  0.08648190  0.44688000  1
  C  C1107  1  0.41351810  0.34140180  0.44688000  1
  C  C1108  1  0.15859820  0.05312000  0.41351810  1
  C  C1109  1  0.15859820  0.08648190  0.55312000  1
  C  C1110  1  0.15859820  0.94688000  0.58648190  1
  C  C1111  1  0.44688000  0.91351810  0.84140180  1
  C  C1112  1  0.84140180  0.91351810  0.55312000  1
  C  C1113  1  0.55312000  0.91351810  0.15859820  1
  C  C1114  1  0.44688000  0.65859820  0.41351810  1
  C  C1115  1  0.41351810  0.94688000  0.15859820  1
  C  C1116  1  0.58648190  0.05312000  0.15859820  1
  C  C1117  1  0.44688000  0.34140180  0.58648190  1
  C  C1118  1  0.58648190  0.94688000  0.84140180  1
  C  C1119  1  0.55312000  0.34140180  0.41351810  1
  C  C1120  1  0.55312000  0.65859820  0.58648190  1
  C  C1121  1  0.41351810  0.05312000  0.84140180  1
  C  C1122  1  0.41351810  0.65859820  0.55312000  1
  C  C1123  1  0.58648190  0.34140180  0.55312000  1
  C  C1124  1  0.84140180  0.94688000  0.41351810  1
  C  C1125  1  0.84140180  0.05312000  0.58648190  1
  C  C1126  1  0.44688000  0.08648190  0.15859820  1
  C  C1127  1  0.55312000  0.08648190  0.84140180  1
  C  C1128  1  0.15859820  0.41351810  0.94688000  1
  C  C1129  1  0.58648190  0.15859820  0.94688000  1
  C  C1130  1  0.84140180  0.58648190  0.94688000  1
  C  C1131  1  0.41351810  0.84140180  0.94688000  1
  C  C1132  1  0.15859820  0.55312000  0.91351810  1
  C  C1133  1  0.15859820  0.58648190  0.05312000  1
  C  C1134  1  0.15859820  0.44688000  0.08648190  1
  C  C1135  1  0.44688000  0.41351810  0.34140180  1
  C  C1136  1  0.84140180  0.41351810  0.05312000  1
  C  C1137  1  0.55312000  0.41351810  0.65859820  1
  C  C1138  1  0.44688000  0.15859820  0.91351810  1
  C  C1139  1  0.41351810  0.44688000  0.65859820  1
  C  C1140  1  0.58648190  0.55312000  0.65859820  1
  C  C1141  1  0.44688000  0.84140180  0.08648190  1
  C  C1142  1  0.58648190  0.44688000  0.34140180  1
  C  C1143  1  0.55312000  0.84140180  0.91351810  1
  C  C1144  1  0.55312000  0.15859820  0.08648190  1
  C  C1145  1  0.41351810  0.55312000  0.34140180  1
  C  C1146  1  0.41351810  0.15859820  0.05312000  1
  C  C1147  1  0.58648190  0.84140180  0.05312000  1
  C  C1148  1  0.84140180  0.44688000  0.91351810  1
  C  C1149  1  0.84140180  0.55312000  0.08648190  1
  C  C1150  1  0.44688000  0.58648190  0.65859820  1
  C  C1151  1  0.55312000  0.58648190  0.34140180  1
  C  C1152  1  0.31823000  0.09533000  0.06143000  1
  C  C1153  1  0.90467000  0.31823000  0.06143000  1
  C  C1154  1  0.68177000  0.90467000  0.06143000  1
  C  C1155  1  0.09533000  0.68177000  0.06143000  1
  C  C1156  1  0.31823000  0.93857000  0.09533000  1
  C  C1157  1  0.31823000  0.90467000  0.93857000  1
  C  C1158  1  0.31823000  0.06143000  0.90467000  1
  C  C1159  1  0.06143000  0.09533000  0.68177000  1
  C  C1160  1  0.68177000  0.09533000  0.93857000  1
  C  C1161  1  0.93857000  0.09533000  0.31823000  1
  C  C1162  1  0.06143000  0.31823000  0.09533000  1
  C  C1163  1  0.09533000  0.06143000  0.31823000  1
  C  C1164  1  0.90467000  0.93857000  0.31823000  1
  C  C1165  1  0.06143000  0.68177000  0.90467000  1
  C  C1166  1  0.90467000  0.06143000  0.68177000  1
  C  C1167  1  0.93857000  0.68177000  0.09533000  1
  C  C1168  1  0.93857000  0.31823000  0.90467000  1
  C  C1169  1  0.09533000  0.93857000  0.68177000  1
  C  C1170  1  0.09533000  0.31823000  0.93857000  1
  C  C1171  1  0.90467000  0.68177000  0.93857000  1
  C  C1172  1  0.68177000  0.06143000  0.09533000  1
  C  C1173  1  0.68177000  0.93857000  0.90467000  1
  C  C1174  1  0.06143000  0.90467000  0.31823000  1
  C  C1175  1  0.93857000  0.90467000  0.68177000  1
  C  C1176  1  0.31823000  0.59533000  0.56143000  1
  C  C1177  1  0.90467000  0.81823000  0.56143000  1
  C  C1178  1  0.68177000  0.40467000  0.56143000  1
  C  C1179  1  0.09533000  0.18177000  0.56143000  1
  C  C1180  1  0.31823000  0.43857000  0.59533000  1
  C  C1181  1  0.31823000  0.40467000  0.43857000  1
  C  C1182  1  0.31823000  0.56143000  0.40467000  1
  C  C1183  1  0.06143000  0.59533000  0.18177000  1
  C  C1184  1  0.68177000  0.59533000  0.43857000  1
  C  C1185  1  0.93857000  0.59533000  0.81823000  1
  C  C1186  1  0.06143000  0.81823000  0.59533000  1
  C  C1187  1  0.09533000  0.56143000  0.81823000  1
  C  C1188  1  0.90467000  0.43857000  0.81823000  1
  C  C1189  1  0.06143000  0.18177000  0.40467000  1
  C  C1190  1  0.90467000  0.56143000  0.18177000  1
  C  C1191  1  0.93857000  0.18177000  0.59533000  1
  C  C1192  1  0.93857000  0.81823000  0.40467000  1
  C  C1193  1  0.09533000  0.43857000  0.18177000  1
  C  C1194  1  0.09533000  0.81823000  0.43857000  1
  C  C1195  1  0.90467000  0.18177000  0.43857000  1
  C  C1196  1  0.68177000  0.56143000  0.59533000  1
  C  C1197  1  0.68177000  0.43857000  0.40467000  1
  C  C1198  1  0.06143000  0.40467000  0.81823000  1
  C  C1199  1  0.93857000  0.40467000  0.18177000  1
  C  C1200  1  0.81823000  0.09533000  0.56143000  1
  C  C1201  1  0.40467000  0.31823000  0.56143000  1
  C  C1202  1  0.18177000  0.90467000  0.56143000  1
  C  C1203  1  0.59533000  0.68177000  0.56143000  1
  C  C1204  1  0.81823000  0.93857000  0.59533000  1
  C  C1205  1  0.81823000  0.90467000  0.43857000  1
  C  C1206  1  0.81823000  0.06143000  0.40467000  1
  C  C1207  1  0.56143000  0.09533000  0.18177000  1
  C  C1208  1  0.18177000  0.09533000  0.43857000  1
  C  C1209  1  0.43857000  0.09533000  0.81823000  1
  C  C1210  1  0.56143000  0.31823000  0.59533000  1
  C  C1211  1  0.59533000  0.06143000  0.81823000  1
  C  C1212  1  0.40467000  0.93857000  0.81823000  1
  C  C1213  1  0.56143000  0.68177000  0.40467000  1
  C  C1214  1  0.40467000  0.06143000  0.18177000  1
  C  C1215  1  0.43857000  0.68177000  0.59533000  1
  C  C1216  1  0.43857000  0.31823000  0.40467000  1
  C  C1217  1  0.59533000  0.93857000  0.18177000  1
  C  C1218  1  0.59533000  0.31823000  0.43857000  1
  C  C1219  1  0.40467000  0.68177000  0.43857000  1
  C  C1220  1  0.18177000  0.06143000  0.59533000  1
  C  C1221  1  0.18177000  0.93857000  0.40467000  1
  C  C1222  1  0.56143000  0.90467000  0.81823000  1
  C  C1223  1  0.43857000  0.90467000  0.18177000  1
  C  C1224  1  0.81823000  0.59533000  0.06143000  1
  C  C1225  1  0.40467000  0.81823000  0.06143000  1
  C  C1226  1  0.18177000  0.40467000  0.06143000  1
  C  C1227  1  0.59533000  0.18177000  0.06143000  1
  C  C1228  1  0.81823000  0.43857000  0.09533000  1
  C  C1229  1  0.81823000  0.40467000  0.93857000  1
  C  C1230  1  0.81823000  0.56143000  0.90467000  1
  C  C1231  1  0.56143000  0.59533000  0.68177000  1
  C  C1232  1  0.18177000  0.59533000  0.93857000  1
  C  C1233  1  0.43857000  0.59533000  0.31823000  1
  C  C1234  1  0.56143000  0.81823000  0.09533000  1
  C  C1235  1  0.59533000  0.56143000  0.31823000  1
  C  C1236  1  0.40467000  0.43857000  0.31823000  1
  C  C1237  1  0.56143000  0.18177000  0.90467000  1
  C  C1238  1  0.40467000  0.56143000  0.68177000  1
  C  C1239  1  0.43857000  0.18177000  0.09533000  1
  C  C1240  1  0.43857000  0.81823000  0.90467000  1
  C  C1241  1  0.59533000  0.43857000  0.68177000  1
  C  C1242  1  0.59533000  0.81823000  0.93857000  1
  C  C1243  1  0.40467000  0.18177000  0.93857000  1
  C  C1244  1  0.18177000  0.56143000  0.09533000  1
  C  C1245  1  0.18177000  0.43857000  0.90467000  1
  C  C1246  1  0.56143000  0.40467000  0.31823000  1
  C  C1247  1  0.43857000  0.40467000  0.68177000  1
  C  C1248  1  0.68177000  0.90467000  0.93857000  1
  C  C1249  1  0.09533000  0.68177000  0.93857000  1
  C  C1250  1  0.31823000  0.09533000  0.93857000  1
  C  C1251  1  0.90467000  0.31823000  0.93857000  1
  C  C1252  1  0.68177000  0.06143000  0.90467000  1
  C  C1253  1  0.68177000  0.09533000  0.06143000  1
  C  C1254  1  0.68177000  0.93857000  0.09533000  1
  C  C1255  1  0.93857000  0.90467000  0.31823000  1
  C  C1256  1  0.31823000  0.90467000  0.06143000  1
  C  C1257  1  0.06143000  0.90467000  0.68177000  1
  C  C1258  1  0.93857000  0.68177000  0.90467000  1
  C  C1259  1  0.90467000  0.93857000  0.68177000  1
  C  C1260  1  0.09533000  0.06143000  0.68177000  1
  C  C1261  1  0.93857000  0.31823000  0.09533000  1
  C  C1262  1  0.09533000  0.93857000  0.31823000  1
  C  C1263  1  0.06143000  0.31823000  0.90467000  1
  C  C1264  1  0.06143000  0.68177000  0.09533000  1
  C  C1265  1  0.90467000  0.06143000  0.31823000  1
  C  C1266  1  0.90467000  0.68177000  0.06143000  1
  C  C1267  1  0.09533000  0.31823000  0.06143000  1
  C  C1268  1  0.31823000  0.93857000  0.90467000  1
  C  C1269  1  0.31823000  0.06143000  0.09533000  1
  C  C1270  1  0.93857000  0.09533000  0.68177000  1
  C  C1271  1  0.06143000  0.09533000  0.31823000  1
  C  C1272  1  0.68177000  0.40467000  0.43857000  1
  C  C1273  1  0.09533000  0.18177000  0.43857000  1
  C  C1274  1  0.31823000  0.59533000  0.43857000  1
  C  C1275  1  0.90467000  0.81823000  0.43857000  1
  C  C1276  1  0.68177000  0.56143000  0.40467000  1
  C  C1277  1  0.68177000  0.59533000  0.56143000  1
  C  C1278  1  0.68177000  0.43857000  0.59533000  1
  C  C1279  1  0.93857000  0.40467000  0.81823000  1
  C  C1280  1  0.31823000  0.40467000  0.56143000  1
  C  C1281  1  0.06143000  0.40467000  0.18177000  1
  C  C1282  1  0.93857000  0.18177000  0.40467000  1
  C  C1283  1  0.90467000  0.43857000  0.18177000  1
  C  C1284  1  0.09533000  0.56143000  0.18177000  1
  C  C1285  1  0.93857000  0.81823000  0.59533000  1
  C  C1286  1  0.09533000  0.43857000  0.81823000  1
  C  C1287  1  0.06143000  0.81823000  0.40467000  1
  C  C1288  1  0.06143000  0.18177000  0.59533000  1
  C  C1289  1  0.90467000  0.56143000  0.81823000  1
  C  C1290  1  0.90467000  0.18177000  0.56143000  1
  C  C1291  1  0.09533000  0.81823000  0.56143000  1
  C  C1292  1  0.31823000  0.43857000  0.40467000  1
  C  C1293  1  0.31823000  0.56143000  0.59533000  1
  C  C1294  1  0.93857000  0.59533000  0.18177000  1
  C  C1295  1  0.06143000  0.59533000  0.81823000  1
  C  C1296  1  0.18177000  0.90467000  0.43857000  1
  C  C1297  1  0.59533000  0.68177000  0.43857000  1
  C  C1298  1  0.81823000  0.09533000  0.43857000  1
  C  C1299  1  0.40467000  0.31823000  0.43857000  1
  C  C1300  1  0.18177000  0.06143000  0.40467000  1
  C  C1301  1  0.18177000  0.09533000  0.56143000  1
  C  C1302  1  0.18177000  0.93857000  0.59533000  1
  C  C1303  1  0.43857000  0.90467000  0.81823000  1
  C  C1304  1  0.81823000  0.90467000  0.56143000  1
  C  C1305  1  0.56143000  0.90467000  0.18177000  1
  C  C1306  1  0.43857000  0.68177000  0.40467000  1
  C  C1307  1  0.40467000  0.93857000  0.18177000  1
  C  C1308  1  0.59533000  0.06143000  0.18177000  1
  C  C1309  1  0.43857000  0.31823000  0.59533000  1
  C  C1310  1  0.59533000  0.93857000  0.81823000  1
  C  C1311  1  0.56143000  0.31823000  0.40467000  1
  C  C1312  1  0.56143000  0.68177000  0.59533000  1
  C  C1313  1  0.40467000  0.06143000  0.81823000  1
  C  C1314  1  0.40467000  0.68177000  0.56143000  1
  C  C1315  1  0.59533000  0.31823000  0.56143000  1
  C  C1316  1  0.81823000  0.93857000  0.40467000  1
  C  C1317  1  0.81823000  0.06143000  0.59533000  1
  C  C1318  1  0.43857000  0.09533000  0.18177000  1
  C  C1319  1  0.56143000  0.09533000  0.81823000  1
  C  C1320  1  0.18177000  0.40467000  0.93857000  1
  C  C1321  1  0.59533000  0.18177000  0.93857000  1
  C  C1322  1  0.81823000  0.59533000  0.93857000  1
  C  C1323  1  0.40467000  0.81823000  0.93857000  1
  C  C1324  1  0.18177000  0.56143000  0.90467000  1
  C  C1325  1  0.18177000  0.59533000  0.06143000  1
  C  C1326  1  0.18177000  0.43857000  0.09533000  1
  C  C1327  1  0.43857000  0.40467000  0.31823000  1
  C  C1328  1  0.81823000  0.40467000  0.06143000  1
  C  C1329  1  0.56143000  0.40467000  0.68177000  1
  C  C1330  1  0.43857000  0.18177000  0.90467000  1
  C  C1331  1  0.40467000  0.43857000  0.68177000  1
  C  C1332  1  0.59533000  0.56143000  0.68177000  1
  C  C1333  1  0.43857000  0.81823000  0.09533000  1
  C  C1334  1  0.59533000  0.43857000  0.31823000  1
  C  C1335  1  0.56143000  0.81823000  0.90467000  1
  C  C1336  1  0.56143000  0.18177000  0.09533000  1
  C  C1337  1  0.40467000  0.56143000  0.31823000  1
  C  C1338  1  0.40467000  0.18177000  0.06143000  1
  C  C1339  1  0.59533000  0.81823000  0.06143000  1
  C  C1340  1  0.81823000  0.43857000  0.90467000  1
  C  C1341  1  0.81823000  0.56143000  0.09533000  1
  C  C1342  1  0.43857000  0.59533000  0.68177000  1
  C  C1343  1  0.56143000  0.59533000  0.31823000  1
  H  H1344  1  0.30960000  0.10910000  0.05360000  1
  H  H1345  1  0.89090000  0.30960000  0.05360000  1
  H  H1346  1  0.69040000  0.89090000  0.05360000  1
  H  H1347  1  0.10910000  0.69040000  0.05360000  1
  H  H1348  1  0.30960000  0.94640000  0.10910000  1
  H  H1349  1  0.30960000  0.89090000  0.94640000  1
  H  H1350  1  0.30960000  0.05360000  0.89090000  1
  H  H1351  1  0.05360000  0.10910000  0.69040000  1
  H  H1352  1  0.69040000  0.10910000  0.94640000  1
  H  H1353  1  0.94640000  0.10910000  0.30960000  1
  H  H1354  1  0.05360000  0.30960000  0.10910000  1
  H  H1355  1  0.10910000  0.05360000  0.30960000  1
  H  H1356  1  0.89090000  0.94640000  0.30960000  1
  H  H1357  1  0.05360000  0.69040000  0.89090000  1
  H  H1358  1  0.89090000  0.05360000  0.69040000  1
  H  H1359  1  0.94640000  0.69040000  0.10910000  1
  H  H1360  1  0.94640000  0.30960000  0.89090000  1
  H  H1361  1  0.10910000  0.94640000  0.69040000  1
  H  H1362  1  0.10910000  0.30960000  0.94640000  1
  H  H1363  1  0.89090000  0.69040000  0.94640000  1
  H  H1364  1  0.69040000  0.05360000  0.10910000  1
  H  H1365  1  0.69040000  0.94640000  0.89090000  1
  H  H1366  1  0.05360000  0.89090000  0.30960000  1
  H  H1367  1  0.94640000  0.89090000  0.69040000  1
  H  H1368  1  0.30960000  0.60910000  0.55360000  1
  H  H1369  1  0.89090000  0.80960000  0.55360000  1
  H  H1370  1  0.69040000  0.39090000  0.55360000  1
  H  H1371  1  0.10910000  0.19040000  0.55360000  1
  H  H1372  1  0.30960000  0.44640000  0.60910000  1
  H  H1373  1  0.30960000  0.39090000  0.44640000  1
  H  H1374  1  0.30960000  0.55360000  0.39090000  1
  H  H1375  1  0.05360000  0.60910000  0.19040000  1
  H  H1376  1  0.69040000  0.60910000  0.44640000  1
  H  H1377  1  0.94640000  0.60910000  0.80960000  1
  H  H1378  1  0.05360000  0.80960000  0.60910000  1
  H  H1379  1  0.10910000  0.55360000  0.80960000  1
  H  H1380  1  0.89090000  0.44640000  0.80960000  1
  H  H1381  1  0.05360000  0.19040000  0.39090000  1
  H  H1382  1  0.89090000  0.55360000  0.19040000  1
  H  H1383  1  0.94640000  0.19040000  0.60910000  1
  H  H1384  1  0.94640000  0.80960000  0.39090000  1
  H  H1385  1  0.10910000  0.44640000  0.19040000  1
  H  H1386  1  0.10910000  0.80960000  0.44640000  1
  H  H1387  1  0.89090000  0.19040000  0.44640000  1
  H  H1388  1  0.69040000  0.55360000  0.60910000  1
  H  H1389  1  0.69040000  0.44640000  0.39090000  1
  H  H1390  1  0.05360000  0.39090000  0.80960000  1
  H  H1391  1  0.94640000  0.39090000  0.19040000  1
  H  H1392  1  0.80960000  0.10910000  0.55360000  1
  H  H1393  1  0.39090000  0.30960000  0.55360000  1
  H  H1394  1  0.19040000  0.89090000  0.55360000  1
  H  H1395  1  0.60910000  0.69040000  0.55360000  1
  H  H1396  1  0.80960000  0.94640000  0.60910000  1
  H  H1397  1  0.80960000  0.89090000  0.44640000  1
  H  H1398  1  0.80960000  0.05360000  0.39090000  1
  H  H1399  1  0.55360000  0.10910000  0.19040000  1
  H  H1400  1  0.19040000  0.10910000  0.44640000  1
  H  H1401  1  0.44640000  0.10910000  0.80960000  1
  H  H1402  1  0.55360000  0.30960000  0.60910000  1
  H  H1403  1  0.60910000  0.05360000  0.80960000  1
  H  H1404  1  0.39090000  0.94640000  0.80960000  1
  H  H1405  1  0.55360000  0.69040000  0.39090000  1
  H  H1406  1  0.39090000  0.05360000  0.19040000  1
  H  H1407  1  0.44640000  0.69040000  0.60910000  1
  H  H1408  1  0.44640000  0.30960000  0.39090000  1
  H  H1409  1  0.60910000  0.94640000  0.19040000  1
  H  H1410  1  0.60910000  0.30960000  0.44640000  1
  H  H1411  1  0.39090000  0.69040000  0.44640000  1
  H  H1412  1  0.19040000  0.05360000  0.60910000  1
  H  H1413  1  0.19040000  0.94640000  0.39090000  1
  H  H1414  1  0.55360000  0.89090000  0.80960000  1
  H  H1415  1  0.44640000  0.89090000  0.19040000  1
  H  H1416  1  0.80960000  0.60910000  0.05360000  1
  H  H1417  1  0.39090000  0.80960000  0.05360000  1
  H  H1418  1  0.19040000  0.39090000  0.05360000  1
  H  H1419  1  0.60910000  0.19040000  0.05360000  1
  H  H1420  1  0.80960000  0.44640000  0.10910000  1
  H  H1421  1  0.80960000  0.39090000  0.94640000  1
  H  H1422  1  0.80960000  0.55360000  0.89090000  1
  H  H1423  1  0.55360000  0.60910000  0.69040000  1
  H  H1424  1  0.19040000  0.60910000  0.94640000  1
  H  H1425  1  0.44640000  0.60910000  0.30960000  1
  H  H1426  1  0.55360000  0.80960000  0.10910000  1
  H  H1427  1  0.60910000  0.55360000  0.30960000  1
  H  H1428  1  0.39090000  0.44640000  0.30960000  1
  H  H1429  1  0.55360000  0.19040000  0.89090000  1
  H  H1430  1  0.39090000  0.55360000  0.69040000  1
  H  H1431  1  0.44640000  0.19040000  0.10910000  1
  H  H1432  1  0.44640000  0.80960000  0.89090000  1
  H  H1433  1  0.60910000  0.44640000  0.69040000  1
  H  H1434  1  0.60910000  0.80960000  0.94640000  1
  H  H1435  1  0.39090000  0.19040000  0.94640000  1
  H  H1436  1  0.19040000  0.55360000  0.10910000  1
  H  H1437  1  0.19040000  0.44640000  0.89090000  1
  H  H1438  1  0.55360000  0.39090000  0.30960000  1
  H  H1439  1  0.44640000  0.39090000  0.69040000  1
  H  H1440  1  0.69040000  0.89090000  0.94640000  1
  H  H1441  1  0.10910000  0.69040000  0.94640000  1
  H  H1442  1  0.30960000  0.10910000  0.94640000  1
  H  H1443  1  0.89090000  0.30960000  0.94640000  1
  H  H1444  1  0.69040000  0.05360000  0.89090000  1
  H  H1445  1  0.69040000  0.10910000  0.05360000  1
  H  H1446  1  0.69040000  0.94640000  0.10910000  1
  H  H1447  1  0.94640000  0.89090000  0.30960000  1
  H  H1448  1  0.30960000  0.89090000  0.05360000  1
  H  H1449  1  0.05360000  0.89090000  0.69040000  1
  H  H1450  1  0.94640000  0.69040000  0.89090000  1
  H  H1451  1  0.89090000  0.94640000  0.69040000  1
  H  H1452  1  0.10910000  0.05360000  0.69040000  1
  H  H1453  1  0.94640000  0.30960000  0.10910000  1
  H  H1454  1  0.10910000  0.94640000  0.30960000  1
  H  H1455  1  0.05360000  0.30960000  0.89090000  1
  H  H1456  1  0.05360000  0.69040000  0.10910000  1
  H  H1457  1  0.89090000  0.05360000  0.30960000  1
  H  H1458  1  0.89090000  0.69040000  0.05360000  1
  H  H1459  1  0.10910000  0.30960000  0.05360000  1
  H  H1460  1  0.30960000  0.94640000  0.89090000  1
  H  H1461  1  0.30960000  0.05360000  0.10910000  1
  H  H1462  1  0.94640000  0.10910000  0.69040000  1
  H  H1463  1  0.05360000  0.10910000  0.30960000  1
  H  H1464  1  0.69040000  0.39090000  0.44640000  1
  H  H1465  1  0.10910000  0.19040000  0.44640000  1
  H  H1466  1  0.30960000  0.60910000  0.44640000  1
  H  H1467  1  0.89090000  0.80960000  0.44640000  1
  H  H1468  1  0.69040000  0.55360000  0.39090000  1
  H  H1469  1  0.69040000  0.60910000  0.55360000  1
  H  H1470  1  0.69040000  0.44640000  0.60910000  1
  H  H1471  1  0.94640000  0.39090000  0.80960000  1
  H  H1472  1  0.30960000  0.39090000  0.55360000  1
  H  H1473  1  0.05360000  0.39090000  0.19040000  1
  H  H1474  1  0.94640000  0.19040000  0.39090000  1
  H  H1475  1  0.89090000  0.44640000  0.19040000  1
  H  H1476  1  0.10910000  0.55360000  0.19040000  1
  H  H1477  1  0.94640000  0.80960000  0.60910000  1
  H  H1478  1  0.10910000  0.44640000  0.80960000  1
  H  H1479  1  0.05360000  0.80960000  0.39090000  1
  H  H1480  1  0.05360000  0.19040000  0.60910000  1
  H  H1481  1  0.89090000  0.55360000  0.80960000  1
  H  H1482  1  0.89090000  0.19040000  0.55360000  1
  H  H1483  1  0.10910000  0.80960000  0.55360000  1
  H  H1484  1  0.30960000  0.44640000  0.39090000  1
  H  H1485  1  0.30960000  0.55360000  0.60910000  1
  H  H1486  1  0.94640000  0.60910000  0.19040000  1
  H  H1487  1  0.05360000  0.60910000  0.80960000  1
  H  H1488  1  0.19040000  0.89090000  0.44640000  1
  H  H1489  1  0.60910000  0.69040000  0.44640000  1
  H  H1490  1  0.80960000  0.10910000  0.44640000  1
  H  H1491  1  0.39090000  0.30960000  0.44640000  1
  H  H1492  1  0.19040000  0.05360000  0.39090000  1
  H  H1493  1  0.19040000  0.10910000  0.55360000  1
  H  H1494  1  0.19040000  0.94640000  0.60910000  1
  H  H1495  1  0.44640000  0.89090000  0.80960000  1
  H  H1496  1  0.80960000  0.89090000  0.55360000  1
  H  H1497  1  0.55360000  0.89090000  0.19040000  1
  H  H1498  1  0.44640000  0.69040000  0.39090000  1
  H  H1499  1  0.39090000  0.94640000  0.19040000  1
  H  H1500  1  0.60910000  0.05360000  0.19040000  1
  H  H1501  1  0.44640000  0.30960000  0.60910000  1
  H  H1502  1  0.60910000  0.94640000  0.80960000  1
  H  H1503  1  0.55360000  0.30960000  0.39090000  1
  H  H1504  1  0.55360000  0.69040000  0.60910000  1
  H  H1505  1  0.39090000  0.05360000  0.80960000  1
  H  H1506  1  0.39090000  0.69040000  0.55360000  1
  H  H1507  1  0.60910000  0.30960000  0.55360000  1
  H  H1508  1  0.80960000  0.94640000  0.39090000  1
  H  H1509  1  0.80960000  0.05360000  0.60910000  1
  H  H1510  1  0.44640000  0.10910000  0.19040000  1
  H  H1511  1  0.55360000  0.10910000  0.80960000  1
  H  H1512  1  0.19040000  0.39090000  0.94640000  1
  H  H1513  1  0.60910000  0.19040000  0.94640000  1
  H  H1514  1  0.80960000  0.60910000  0.94640000  1
  H  H1515  1  0.39090000  0.80960000  0.94640000  1
  H  H1516  1  0.19040000  0.55360000  0.89090000  1
  H  H1517  1  0.19040000  0.60910000  0.05360000  1
  H  H1518  1  0.19040000  0.44640000  0.10910000  1
  H  H1519  1  0.44640000  0.39090000  0.30960000  1
  H  H1520  1  0.80960000  0.39090000  0.05360000  1
  H  H1521  1  0.55360000  0.39090000  0.69040000  1
  H  H1522  1  0.44640000  0.19040000  0.89090000  1
  H  H1523  1  0.39090000  0.44640000  0.69040000  1
  H  H1524  1  0.60910000  0.55360000  0.69040000  1
  H  H1525  1  0.44640000  0.80960000  0.10910000  1
  H  H1526  1  0.60910000  0.44640000  0.30960000  1
  H  H1527  1  0.55360000  0.80960000  0.89090000  1
  H  H1528  1  0.55360000  0.19040000  0.10910000  1
  H  H1529  1  0.39090000  0.55360000  0.30960000  1
  H  H1530  1  0.39090000  0.19040000  0.05360000  1
  H  H1531  1  0.60910000  0.80960000  0.05360000  1
  H  H1532  1  0.80960000  0.44640000  0.89090000  1
  H  H1533  1  0.80960000  0.55360000  0.10910000  1
  H  H1534  1  0.44640000  0.60910000  0.69040000  1
  H  H1535  1  0.55360000  0.60910000  0.30960000  1
  C  C1536  1  0.30823000  0.08224000  0.08223000  1
  C  C1537  1  0.91776000  0.30823000  0.08223000  1
  C  C1538  1  0.69177000  0.91776000  0.08223000  1
  C  C1539  1  0.08224000  0.69177000  0.08223000  1
  C  C1540  1  0.30823000  0.91777000  0.08224000  1
  C  C1541  1  0.30823000  0.91776000  0.91777000  1
  C  C1542  1  0.30823000  0.08223000  0.91776000  1
  C  C1543  1  0.08223000  0.08224000  0.69177000  1
  C  C1544  1  0.69177000  0.08224000  0.91777000  1
  C  C1545  1  0.91777000  0.08224000  0.30823000  1
  C  C1546  1  0.08223000  0.30823000  0.08224000  1
  C  C1547  1  0.08224000  0.08223000  0.30823000  1
  C  C1548  1  0.91776000  0.91777000  0.30823000  1
  C  C1549  1  0.08223000  0.69177000  0.91776000  1
  C  C1550  1  0.91776000  0.08223000  0.69177000  1
  C  C1551  1  0.91777000  0.69177000  0.08224000  1
  C  C1552  1  0.91777000  0.30823000  0.91776000  1
  C  C1553  1  0.08224000  0.91777000  0.69177000  1
  C  C1554  1  0.08224000  0.30823000  0.91777000  1
  C  C1555  1  0.91776000  0.69177000  0.91777000  1
  C  C1556  1  0.69177000  0.08223000  0.08224000  1
  C  C1557  1  0.69177000  0.91777000  0.91776000  1
  C  C1558  1  0.08223000  0.91776000  0.30823000  1
  C  C1559  1  0.91777000  0.91776000  0.69177000  1
  C  C1560  1  0.30823000  0.58224000  0.58223000  1
  C  C1561  1  0.91776000  0.80823000  0.58223000  1
  C  C1562  1  0.69177000  0.41776000  0.58223000  1
  C  C1563  1  0.08224000  0.19177000  0.58223000  1
  C  C1564  1  0.30823000  0.41777000  0.58224000  1
  C  C1565  1  0.30823000  0.41776000  0.41777000  1
  C  C1566  1  0.30823000  0.58223000  0.41776000  1
  C  C1567  1  0.08223000  0.58224000  0.19177000  1
  C  C1568  1  0.69177000  0.58224000  0.41777000  1
  C  C1569  1  0.91777000  0.58224000  0.80823000  1
  C  C1570  1  0.08223000  0.80823000  0.58224000  1
  C  C1571  1  0.08224000  0.58223000  0.80823000  1
  C  C1572  1  0.91776000  0.41777000  0.80823000  1
  C  C1573  1  0.08223000  0.19177000  0.41776000  1
  C  C1574  1  0.91776000  0.58223000  0.19177000  1
  C  C1575  1  0.91777000  0.19177000  0.58224000  1
  C  C1576  1  0.91777000  0.80823000  0.41776000  1
  C  C1577  1  0.08224000  0.41777000  0.19177000  1
  C  C1578  1  0.08224000  0.80823000  0.41777000  1
  C  C1579  1  0.91776000  0.19177000  0.41777000  1
  C  C1580  1  0.69177000  0.58223000  0.58224000  1
  C  C1581  1  0.69177000  0.41777000  0.41776000  1
  C  C1582  1  0.08223000  0.41776000  0.80823000  1
  C  C1583  1  0.91777000  0.41776000  0.19177000  1
  C  C1584  1  0.80823000  0.08224000  0.58223000  1
  C  C1585  1  0.41776000  0.30823000  0.58223000  1
  C  C1586  1  0.19177000  0.91776000  0.58223000  1
  C  C1587  1  0.58224000  0.69177000  0.58223000  1
  C  C1588  1  0.80823000  0.91777000  0.58224000  1
  C  C1589  1  0.80823000  0.91776000  0.41777000  1
  C  C1590  1  0.80823000  0.08223000  0.41776000  1
  C  C1591  1  0.58223000  0.08224000  0.19177000  1
  C  C1592  1  0.19177000  0.08224000  0.41777000  1
  C  C1593  1  0.41777000  0.08224000  0.80823000  1
  C  C1594  1  0.58223000  0.30823000  0.58224000  1
  C  C1595  1  0.58224000  0.08223000  0.80823000  1
  C  C1596  1  0.41776000  0.91777000  0.80823000  1
  C  C1597  1  0.58223000  0.69177000  0.41776000  1
  C  C1598  1  0.41776000  0.08223000  0.19177000  1
  C  C1599  1  0.41777000  0.69177000  0.58224000  1
  C  C1600  1  0.41777000  0.30823000  0.41776000  1
  C  C1601  1  0.58224000  0.91777000  0.19177000  1
  C  C1602  1  0.58224000  0.30823000  0.41777000  1
  C  C1603  1  0.41776000  0.69177000  0.41777000  1
  C  C1604  1  0.19177000  0.08223000  0.58224000  1
  C  C1605  1  0.19177000  0.91777000  0.41776000  1
  C  C1606  1  0.58223000  0.91776000  0.80823000  1
  C  C1607  1  0.41777000  0.91776000  0.19177000  1
  C  C1608  1  0.80823000  0.58224000  0.08223000  1
  C  C1609  1  0.41776000  0.80823000  0.08223000  1
  C  C1610  1  0.19177000  0.41776000  0.08223000  1
  C  C1611  1  0.58224000  0.19177000  0.08223000  1
  C  C1612  1  0.80823000  0.41777000  0.08224000  1
  C  C1613  1  0.80823000  0.41776000  0.91777000  1
  C  C1614  1  0.80823000  0.58223000  0.91776000  1
  C  C1615  1  0.58223000  0.58224000  0.69177000  1
  C  C1616  1  0.19177000  0.58224000  0.91777000  1
  C  C1617  1  0.41777000  0.58224000  0.30823000  1
  C  C1618  1  0.58223000  0.80823000  0.08224000  1
  C  C1619  1  0.58224000  0.58223000  0.30823000  1
  C  C1620  1  0.41776000  0.41777000  0.30823000  1
  C  C1621  1  0.58223000  0.19177000  0.91776000  1
  C  C1622  1  0.41776000  0.58223000  0.69177000  1
  C  C1623  1  0.41777000  0.19177000  0.08224000  1
  C  C1624  1  0.41777000  0.80823000  0.91776000  1
  C  C1625  1  0.58224000  0.41777000  0.69177000  1
  C  C1626  1  0.58224000  0.80823000  0.91777000  1
  C  C1627  1  0.41776000  0.19177000  0.91777000  1
  C  C1628  1  0.19177000  0.58223000  0.08224000  1
  C  C1629  1  0.19177000  0.41777000  0.91776000  1
  C  C1630  1  0.58223000  0.41776000  0.30823000  1
  C  C1631  1  0.41777000  0.41776000  0.69177000  1
  C  C1632  1  0.28336000  0.09186000  0.09186000  1
  C  C1633  1  0.90814000  0.28336000  0.09186000  1
  C  C1634  1  0.71664000  0.90814000  0.09186000  1
  C  C1635  1  0.09186000  0.71664000  0.09186000  1
  C  C1636  1  0.28336000  0.90814000  0.09186000  1
  C  C1637  1  0.28336000  0.90814000  0.90814000  1
  C  C1638  1  0.28336000  0.09186000  0.90814000  1
  C  C1639  1  0.09186000  0.09186000  0.71664000  1
  C  C1640  1  0.71664000  0.09186000  0.90814000  1
  C  C1641  1  0.90814000  0.09186000  0.28336000  1
  C  C1642  1  0.09186000  0.28336000  0.09186000  1
  C  C1643  1  0.09186000  0.09186000  0.28336000  1
  C  C1644  1  0.90814000  0.90814000  0.28336000  1
  C  C1645  1  0.09186000  0.71664000  0.90814000  1
  C  C1646  1  0.90814000  0.09186000  0.71664000  1
  C  C1647  1  0.90814000  0.71664000  0.09186000  1
  C  C1648  1  0.90814000  0.28336000  0.90814000  1
  C  C1649  1  0.09186000  0.90814000  0.71664000  1
  C  C1650  1  0.09186000  0.28336000  0.90814000  1
  C  C1651  1  0.90814000  0.71664000  0.90814000  1
  C  C1652  1  0.71664000  0.09186000  0.09186000  1
  C  C1653  1  0.71664000  0.90814000  0.90814000  1
  C  C1654  1  0.09186000  0.90814000  0.28336000  1
  C  C1655  1  0.90814000  0.90814000  0.71664000  1
  C  C1656  1  0.28336000  0.59186000  0.59186000  1
  C  C1657  1  0.90814000  0.78336000  0.59186000  1
  C  C1658  1  0.71664000  0.40814000  0.59186000  1
  C  C1659  1  0.09186000  0.21664000  0.59186000  1
  C  C1660  1  0.28336000  0.40814000  0.59186000  1
  C  C1661  1  0.28336000  0.40814000  0.40814000  1
  C  C1662  1  0.28336000  0.59186000  0.40814000  1
  C  C1663  1  0.09186000  0.59186000  0.21664000  1
  C  C1664  1  0.71664000  0.59186000  0.40814000  1
  C  C1665  1  0.90814000  0.59186000  0.78336000  1
  C  C1666  1  0.09186000  0.78336000  0.59186000  1
  C  C1667  1  0.09186000  0.59186000  0.78336000  1
  C  C1668  1  0.90814000  0.40814000  0.78336000  1
  C  C1669  1  0.09186000  0.21664000  0.40814000  1
  C  C1670  1  0.90814000  0.59186000  0.21664000  1
  C  C1671  1  0.90814000  0.21664000  0.59186000  1
  C  C1672  1  0.90814000  0.78336000  0.40814000  1
  C  C1673  1  0.09186000  0.40814000  0.21664000  1
  C  C1674  1  0.09186000  0.78336000  0.40814000  1
  C  C1675  1  0.90814000  0.21664000  0.40814000  1
  C  C1676  1  0.71664000  0.59186000  0.59186000  1
  C  C1677  1  0.71664000  0.40814000  0.40814000  1
  C  C1678  1  0.09186000  0.40814000  0.78336000  1
  C  C1679  1  0.90814000  0.40814000  0.21664000  1
  C  C1680  1  0.78336000  0.09186000  0.59186000  1
  C  C1681  1  0.40814000  0.28336000  0.59186000  1
  C  C1682  1  0.21664000  0.90814000  0.59186000  1
  C  C1683  1  0.59186000  0.71664000  0.59186000  1
  C  C1684  1  0.78336000  0.90814000  0.59186000  1
  C  C1685  1  0.78336000  0.90814000  0.40814000  1
  C  C1686  1  0.78336000  0.09186000  0.40814000  1
  C  C1687  1  0.59186000  0.09186000  0.21664000  1
  C  C1688  1  0.21664000  0.09186000  0.40814000  1
  C  C1689  1  0.40814000  0.09186000  0.78336000  1
  C  C1690  1  0.59186000  0.28336000  0.59186000  1
  C  C1691  1  0.59186000  0.09186000  0.78336000  1
  C  C1692  1  0.40814000  0.90814000  0.78336000  1
  C  C1693  1  0.59186000  0.71664000  0.40814000  1
  C  C1694  1  0.40814000  0.09186000  0.21664000  1
  C  C1695  1  0.40814000  0.71664000  0.59186000  1
  C  C1696  1  0.40814000  0.28336000  0.40814000  1
  C  C1697  1  0.59186000  0.90814000  0.21664000  1
  C  C1698  1  0.59186000  0.28336000  0.40814000  1
  C  C1699  1  0.40814000  0.71664000  0.40814000  1
  C  C1700  1  0.21664000  0.09186000  0.59186000  1
  C  C1701  1  0.21664000  0.90814000  0.40814000  1
  C  C1702  1  0.59186000  0.90814000  0.78336000  1
  C  C1703  1  0.40814000  0.90814000  0.21664000  1
  C  C1704  1  0.78336000  0.59186000  0.09186000  1
  C  C1705  1  0.40814000  0.78336000  0.09186000  1
  C  C1706  1  0.21664000  0.40814000  0.09186000  1
  C  C1707  1  0.59186000  0.21664000  0.09186000  1
  C  C1708  1  0.78336000  0.40814000  0.09186000  1
  C  C1709  1  0.78336000  0.40814000  0.90814000  1
  C  C1710  1  0.78336000  0.59186000  0.90814000  1
  C  C1711  1  0.59186000  0.59186000  0.71664000  1
  C  C1712  1  0.21664000  0.59186000  0.90814000  1
  C  C1713  1  0.40814000  0.59186000  0.28336000  1
  C  C1714  1  0.59186000  0.78336000  0.09186000  1
  C  C1715  1  0.59186000  0.59186000  0.28336000  1
  C  C1716  1  0.40814000  0.40814000  0.28336000  1
  C  C1717  1  0.59186000  0.21664000  0.90814000  1
  C  C1718  1  0.40814000  0.59186000  0.71664000  1
  C  C1719  1  0.40814000  0.21664000  0.09186000  1
  C  C1720  1  0.40814000  0.78336000  0.90814000  1
  C  C1721  1  0.59186000  0.40814000  0.71664000  1
  C  C1722  1  0.59186000  0.78336000  0.90814000  1
  C  C1723  1  0.40814000  0.21664000  0.90814000  1
  C  C1724  1  0.21664000  0.59186000  0.09186000  1
  C  C1725  1  0.21664000  0.40814000  0.90814000  1
  C  C1726  1  0.59186000  0.40814000  0.28336000  1
  C  C1727  1  0.40814000  0.40814000  0.71664000  1
  C  C1728  1  0.26171000  0.09736000  0.09731000  1
  C  C1729  1  0.90264000  0.26171000  0.09731000  1
  C  C1730  1  0.73829000  0.90264000  0.09731000  1
  C  C1731  1  0.09736000  0.73829000  0.09731000  1
  C  C1732  1  0.26171000  0.90269000  0.09736000  1
  C  C1733  1  0.26171000  0.90264000  0.90269000  1
  C  C1734  1  0.26171000  0.09731000  0.90264000  1
  C  C1735  1  0.09731000  0.09736000  0.73829000  1
  C  C1736  1  0.73829000  0.09736000  0.90269000  1
  C  C1737  1  0.90269000  0.09736000  0.26171000  1
  C  C1738  1  0.09731000  0.26171000  0.09736000  1
  C  C1739  1  0.09736000  0.09731000  0.26171000  1
  C  C1740  1  0.90264000  0.90269000  0.26171000  1
  C  C1741  1  0.09731000  0.73829000  0.90264000  1
  C  C1742  1  0.90264000  0.09731000  0.73829000  1
  C  C1743  1  0.90269000  0.73829000  0.09736000  1
  C  C1744  1  0.90269000  0.26171000  0.90264000  1
  C  C1745  1  0.09736000  0.90269000  0.73829000  1
  C  C1746  1  0.09736000  0.26171000  0.90269000  1
  C  C1747  1  0.90264000  0.73829000  0.90269000  1
  C  C1748  1  0.73829000  0.09731000  0.09736000  1
  C  C1749  1  0.73829000  0.90269000  0.90264000  1
  C  C1750  1  0.09731000  0.90264000  0.26171000  1
  C  C1751  1  0.90269000  0.90264000  0.73829000  1
  C  C1752  1  0.26171000  0.59736000  0.59731000  1
  C  C1753  1  0.90264000  0.76171000  0.59731000  1
  C  C1754  1  0.73829000  0.40264000  0.59731000  1
  C  C1755  1  0.09736000  0.23829000  0.59731000  1
  C  C1756  1  0.26171000  0.40269000  0.59736000  1
  C  C1757  1  0.26171000  0.40264000  0.40269000  1
  C  C1758  1  0.26171000  0.59731000  0.40264000  1
  C  C1759  1  0.09731000  0.59736000  0.23829000  1
  C  C1760  1  0.73829000  0.59736000  0.40269000  1
  C  C1761  1  0.90269000  0.59736000  0.76171000  1
  C  C1762  1  0.09731000  0.76171000  0.59736000  1
  C  C1763  1  0.09736000  0.59731000  0.76171000  1
  C  C1764  1  0.90264000  0.40269000  0.76171000  1
  C  C1765  1  0.09731000  0.23829000  0.40264000  1
  C  C1766  1  0.90264000  0.59731000  0.23829000  1
  C  C1767  1  0.90269000  0.23829000  0.59736000  1
  C  C1768  1  0.90269000  0.76171000  0.40264000  1
  C  C1769  1  0.09736000  0.40269000  0.23829000  1
  C  C1770  1  0.09736000  0.76171000  0.40269000  1
  C  C1771  1  0.90264000  0.23829000  0.40269000  1
  C  C1772  1  0.73829000  0.59731000  0.59736000  1
  C  C1773  1  0.73829000  0.40269000  0.40264000  1
  C  C1774  1  0.09731000  0.40264000  0.76171000  1
  C  C1775  1  0.90269000  0.40264000  0.23829000  1
  C  C1776  1  0.76171000  0.09736000  0.59731000  1
  C  C1777  1  0.40264000  0.26171000  0.59731000  1
  C  C1778  1  0.23829000  0.90264000  0.59731000  1
  C  C1779  1  0.59736000  0.73829000  0.59731000  1
  C  C1780  1  0.76171000  0.90269000  0.59736000  1
  C  C1781  1  0.76171000  0.90264000  0.40269000  1
  C  C1782  1  0.76171000  0.09731000  0.40264000  1
  C  C1783  1  0.59731000  0.09736000  0.23829000  1
  C  C1784  1  0.23829000  0.09736000  0.40269000  1
  C  C1785  1  0.40269000  0.09736000  0.76171000  1
  C  C1786  1  0.59731000  0.26171000  0.59736000  1
  C  C1787  1  0.59736000  0.09731000  0.76171000  1
  C  C1788  1  0.40264000  0.90269000  0.76171000  1
  C  C1789  1  0.59731000  0.73829000  0.40264000  1
  C  C1790  1  0.40264000  0.09731000  0.23829000  1
  C  C1791  1  0.40269000  0.73829000  0.59736000  1
  C  C1792  1  0.40269000  0.26171000  0.40264000  1
  C  C1793  1  0.59736000  0.90269000  0.23829000  1
  C  C1794  1  0.59736000  0.26171000  0.40269000  1
  C  C1795  1  0.40264000  0.73829000  0.40269000  1
  C  C1796  1  0.23829000  0.09731000  0.59736000  1
  C  C1797  1  0.23829000  0.90269000  0.40264000  1
  C  C1798  1  0.59731000  0.90264000  0.76171000  1
  C  C1799  1  0.40269000  0.90264000  0.23829000  1
  C  C1800  1  0.76171000  0.59736000  0.09731000  1
  C  C1801  1  0.40264000  0.76171000  0.09731000  1
  C  C1802  1  0.23829000  0.40264000  0.09731000  1
  C  C1803  1  0.59736000  0.23829000  0.09731000  1
  C  C1804  1  0.76171000  0.40269000  0.09736000  1
  C  C1805  1  0.76171000  0.40264000  0.90269000  1
  C  C1806  1  0.76171000  0.59731000  0.90264000  1
  C  C1807  1  0.59731000  0.59736000  0.73829000  1
  C  C1808  1  0.23829000  0.59736000  0.90269000  1
  C  C1809  1  0.40269000  0.59736000  0.26171000  1
  C  C1810  1  0.59731000  0.76171000  0.09736000  1
  C  C1811  1  0.59736000  0.59731000  0.26171000  1
  C  C1812  1  0.40264000  0.40269000  0.26171000  1
  C  C1813  1  0.59731000  0.23829000  0.90264000  1
  C  C1814  1  0.40264000  0.59731000  0.73829000  1
  C  C1815  1  0.40269000  0.23829000  0.09736000  1
  C  C1816  1  0.40269000  0.76171000  0.90264000  1
  C  C1817  1  0.59736000  0.40269000  0.73829000  1
  C  C1818  1  0.59736000  0.76171000  0.90269000  1
  C  C1819  1  0.40264000  0.23829000  0.90269000  1
  C  C1820  1  0.23829000  0.59731000  0.09736000  1
  C  C1821  1  0.23829000  0.40269000  0.90264000  1
  C  C1822  1  0.59731000  0.40264000  0.26171000  1
  C  C1823  1  0.40269000  0.40264000  0.73829000  1
  C  C1824  1  0.23563000  0.10516000  0.10513000  1
  C  C1825  1  0.89484000  0.23563000  0.10513000  1
  C  C1826  1  0.76437000  0.89484000  0.10513000  1
  C  C1827  1  0.10516000  0.76437000  0.10513000  1
  C  C1828  1  0.23563000  0.89487000  0.10516000  1
  C  C1829  1  0.23563000  0.89484000  0.89487000  1
  C  C1830  1  0.23563000  0.10513000  0.89484000  1
  C  C1831  1  0.10513000  0.10516000  0.76437000  1
  C  C1832  1  0.76437000  0.10516000  0.89487000  1
  C  C1833  1  0.89487000  0.10516000  0.23563000  1
  C  C1834  1  0.10513000  0.23563000  0.10516000  1
  C  C1835  1  0.10516000  0.10513000  0.23563000  1
  C  C1836  1  0.89484000  0.89487000  0.23563000  1
  C  C1837  1  0.10513000  0.76437000  0.89484000  1
  C  C1838  1  0.89484000  0.10513000  0.76437000  1
  C  C1839  1  0.89487000  0.76437000  0.10516000  1
  C  C1840  1  0.89487000  0.23563000  0.89484000  1
  C  C1841  1  0.10516000  0.89487000  0.76437000  1
  C  C1842  1  0.10516000  0.23563000  0.89487000  1
  C  C1843  1  0.89484000  0.76437000  0.89487000  1
  C  C1844  1  0.76437000  0.10513000  0.10516000  1
  C  C1845  1  0.76437000  0.89487000  0.89484000  1
  C  C1846  1  0.10513000  0.89484000  0.23563000  1
  C  C1847  1  0.89487000  0.89484000  0.76437000  1
  C  C1848  1  0.23563000  0.60516000  0.60513000  1
  C  C1849  1  0.89484000  0.73563000  0.60513000  1
  C  C1850  1  0.76437000  0.39484000  0.60513000  1
  C  C1851  1  0.10516000  0.26437000  0.60513000  1
  C  C1852  1  0.23563000  0.39487000  0.60516000  1
  C  C1853  1  0.23563000  0.39484000  0.39487000  1
  C  C1854  1  0.23563000  0.60513000  0.39484000  1
  C  C1855  1  0.10513000  0.60516000  0.26437000  1
  C  C1856  1  0.76437000  0.60516000  0.39487000  1
  C  C1857  1  0.89487000  0.60516000  0.73563000  1
  C  C1858  1  0.10513000  0.73563000  0.60516000  1
  C  C1859  1  0.10516000  0.60513000  0.73563000  1
  C  C1860  1  0.89484000  0.39487000  0.73563000  1
  C  C1861  1  0.10513000  0.26437000  0.39484000  1
  C  C1862  1  0.89484000  0.60513000  0.26437000  1
  C  C1863  1  0.89487000  0.26437000  0.60516000  1
  C  C1864  1  0.89487000  0.73563000  0.39484000  1
  C  C1865  1  0.10516000  0.39487000  0.26437000  1
  C  C1866  1  0.10516000  0.73563000  0.39487000  1
  C  C1867  1  0.89484000  0.26437000  0.39487000  1
  C  C1868  1  0.76437000  0.60513000  0.60516000  1
  C  C1869  1  0.76437000  0.39487000  0.39484000  1
  C  C1870  1  0.10513000  0.39484000  0.73563000  1
  C  C1871  1  0.89487000  0.39484000  0.26437000  1
  C  C1872  1  0.73563000  0.10516000  0.60513000  1
  C  C1873  1  0.39484000  0.23563000  0.60513000  1
  C  C1874  1  0.26437000  0.89484000  0.60513000  1
  C  C1875  1  0.60516000  0.76437000  0.60513000  1
  C  C1876  1  0.73563000  0.89487000  0.60516000  1
  C  C1877  1  0.73563000  0.89484000  0.39487000  1
  C  C1878  1  0.73563000  0.10513000  0.39484000  1
  C  C1879  1  0.60513000  0.10516000  0.26437000  1
  C  C1880  1  0.26437000  0.10516000  0.39487000  1
  C  C1881  1  0.39487000  0.10516000  0.73563000  1
  C  C1882  1  0.60513000  0.23563000  0.60516000  1
  C  C1883  1  0.60516000  0.10513000  0.73563000  1
  C  C1884  1  0.39484000  0.89487000  0.73563000  1
  C  C1885  1  0.60513000  0.76437000  0.39484000  1
  C  C1886  1  0.39484000  0.10513000  0.26437000  1
  C  C1887  1  0.39487000  0.76437000  0.60516000  1
  C  C1888  1  0.39487000  0.23563000  0.39484000  1
  C  C1889  1  0.60516000  0.89487000  0.26437000  1
  C  C1890  1  0.60516000  0.23563000  0.39487000  1
  C  C1891  1  0.39484000  0.76437000  0.39487000  1
  C  C1892  1  0.26437000  0.10513000  0.60516000  1
  C  C1893  1  0.26437000  0.89487000  0.39484000  1
  C  C1894  1  0.60513000  0.89484000  0.73563000  1
  C  C1895  1  0.39487000  0.89484000  0.26437000  1
  C  C1896  1  0.73563000  0.60516000  0.10513000  1
  C  C1897  1  0.39484000  0.73563000  0.10513000  1
  C  C1898  1  0.26437000  0.39484000  0.10513000  1
  C  C1899  1  0.60516000  0.26437000  0.10513000  1
  C  C1900  1  0.73563000  0.39487000  0.10516000  1
  C  C1901  1  0.73563000  0.39484000  0.89487000  1
  C  C1902  1  0.73563000  0.60513000  0.89484000  1
  C  C1903  1  0.60513000  0.60516000  0.76437000  1
  C  C1904  1  0.26437000  0.60516000  0.89487000  1
  C  C1905  1  0.39487000  0.60516000  0.23563000  1
  C  C1906  1  0.60513000  0.73563000  0.10516000  1
  C  C1907  1  0.60516000  0.60513000  0.23563000  1
  C  C1908  1  0.39484000  0.39487000  0.23563000  1
  C  C1909  1  0.60513000  0.26437000  0.89484000  1
  C  C1910  1  0.39484000  0.60513000  0.76437000  1
  C  C1911  1  0.39487000  0.26437000  0.10516000  1
  C  C1912  1  0.39487000  0.73563000  0.89484000  1
  C  C1913  1  0.60516000  0.39487000  0.76437000  1
  C  C1914  1  0.60516000  0.73563000  0.89487000  1
  C  C1915  1  0.39484000  0.26437000  0.89487000  1
  C  C1916  1  0.26437000  0.60513000  0.10516000  1
  C  C1917  1  0.26437000  0.39487000  0.89484000  1
  C  C1918  1  0.60513000  0.39484000  0.23563000  1
  C  C1919  1  0.39487000  0.39484000  0.76437000  1
  C  C1920  1  0.23384000  0.10536000  0.13154000  1
  C  C1921  1  0.89464000  0.23384000  0.13154000  1
  C  C1922  1  0.76616000  0.89464000  0.13154000  1
  C  C1923  1  0.10536000  0.76616000  0.13154000  1
  C  C1924  1  0.23384000  0.86846000  0.10536000  1
  C  C1925  1  0.23384000  0.89464000  0.86846000  1
  C  C1926  1  0.23384000  0.13154000  0.89464000  1
  C  C1927  1  0.13154000  0.10536000  0.76616000  1
  C  C1928  1  0.76616000  0.10536000  0.86846000  1
  C  C1929  1  0.86846000  0.10536000  0.23384000  1
  C  C1930  1  0.13154000  0.23384000  0.10536000  1
  C  C1931  1  0.10536000  0.13154000  0.23384000  1
  C  C1932  1  0.89464000  0.86846000  0.23384000  1
  C  C1933  1  0.13154000  0.76616000  0.89464000  1
  C  C1934  1  0.89464000  0.13154000  0.76616000  1
  C  C1935  1  0.86846000  0.76616000  0.10536000  1
  C  C1936  1  0.86846000  0.23384000  0.89464000  1
  C  C1937  1  0.10536000  0.86846000  0.76616000  1
  C  C1938  1  0.10536000  0.23384000  0.86846000  1
  C  C1939  1  0.89464000  0.76616000  0.86846000  1
  C  C1940  1  0.76616000  0.13154000  0.10536000  1
  C  C1941  1  0.76616000  0.86846000  0.89464000  1
  C  C1942  1  0.13154000  0.89464000  0.23384000  1
  C  C1943  1  0.86846000  0.89464000  0.76616000  1
  C  C1944  1  0.23384000  0.60536000  0.63154000  1
  C  C1945  1  0.89464000  0.73384000  0.63154000  1
  C  C1946  1  0.76616000  0.39464000  0.63154000  1
  C  C1947  1  0.10536000  0.26616000  0.63154000  1
  C  C1948  1  0.23384000  0.36846000  0.60536000  1
  C  C1949  1  0.23384000  0.39464000  0.36846000  1
  C  C1950  1  0.23384000  0.63154000  0.39464000  1
  C  C1951  1  0.13154000  0.60536000  0.26616000  1
  C  C1952  1  0.76616000  0.60536000  0.36846000  1
  C  C1953  1  0.86846000  0.60536000  0.73384000  1
  C  C1954  1  0.13154000  0.73384000  0.60536000  1
  C  C1955  1  0.10536000  0.63154000  0.73384000  1
  C  C1956  1  0.89464000  0.36846000  0.73384000  1
  C  C1957  1  0.13154000  0.26616000  0.39464000  1
  C  C1958  1  0.89464000  0.63154000  0.26616000  1
  C  C1959  1  0.86846000  0.26616000  0.60536000  1
  C  C1960  1  0.86846000  0.73384000  0.39464000  1
  C  C1961  1  0.10536000  0.36846000  0.26616000  1
  C  C1962  1  0.10536000  0.73384000  0.36846000  1
  C  C1963  1  0.89464000  0.26616000  0.36846000  1
  C  C1964  1  0.76616000  0.63154000  0.60536000  1
  C  C1965  1  0.76616000  0.36846000  0.39464000  1
  C  C1966  1  0.13154000  0.39464000  0.73384000  1
  C  C1967  1  0.86846000  0.39464000  0.26616000  1
  C  C1968  1  0.73384000  0.10536000  0.63154000  1
  C  C1969  1  0.39464000  0.23384000  0.63154000  1
  C  C1970  1  0.26616000  0.89464000  0.63154000  1
  C  C1971  1  0.60536000  0.76616000  0.63154000  1
  C  C1972  1  0.73384000  0.86846000  0.60536000  1
  C  C1973  1  0.73384000  0.89464000  0.36846000  1
  C  C1974  1  0.73384000  0.13154000  0.39464000  1
  C  C1975  1  0.63154000  0.10536000  0.26616000  1
  C  C1976  1  0.26616000  0.10536000  0.36846000  1
  C  C1977  1  0.36846000  0.10536000  0.73384000  1
  C  C1978  1  0.63154000  0.23384000  0.60536000  1
  C  C1979  1  0.60536000  0.13154000  0.73384000  1
  C  C1980  1  0.39464000  0.86846000  0.73384000  1
  C  C1981  1  0.63154000  0.76616000  0.39464000  1
  C  C1982  1  0.39464000  0.13154000  0.26616000  1
  C  C1983  1  0.36846000  0.76616000  0.60536000  1
  C  C1984  1  0.36846000  0.23384000  0.39464000  1
  C  C1985  1  0.60536000  0.86846000  0.26616000  1
  C  C1986  1  0.60536000  0.23384000  0.36846000  1
  C  C1987  1  0.39464000  0.76616000  0.36846000  1
  C  C1988  1  0.26616000  0.13154000  0.60536000  1
  C  C1989  1  0.26616000  0.86846000  0.39464000  1
  C  C1990  1  0.63154000  0.89464000  0.73384000  1
  C  C1991  1  0.36846000  0.89464000  0.26616000  1
  C  C1992  1  0.73384000  0.60536000  0.13154000  1
  C  C1993  1  0.39464000  0.73384000  0.13154000  1
  C  C1994  1  0.26616000  0.39464000  0.13154000  1
  C  C1995  1  0.60536000  0.26616000  0.13154000  1
  C  C1996  1  0.73384000  0.36846000  0.10536000  1
  C  C1997  1  0.73384000  0.39464000  0.86846000  1
  C  C1998  1  0.73384000  0.63154000  0.89464000  1
  C  C1999  1  0.63154000  0.60536000  0.76616000  1
  C  C2000  1  0.26616000  0.60536000  0.86846000  1
  C  C2001  1  0.36846000  0.60536000  0.23384000  1
  C  C2002  1  0.63154000  0.73384000  0.10536000  1
  C  C2003  1  0.60536000  0.63154000  0.23384000  1
  C  C2004  1  0.39464000  0.36846000  0.23384000  1
  C  C2005  1  0.63154000  0.26616000  0.89464000  1
  C  C2006  1  0.39464000  0.63154000  0.76616000  1
  C  C2007  1  0.36846000  0.26616000  0.10536000  1
  C  C2008  1  0.36846000  0.73384000  0.89464000  1
  C  C2009  1  0.60536000  0.36846000  0.76616000  1
  C  C2010  1  0.60536000  0.73384000  0.86846000  1
  C  C2011  1  0.39464000  0.26616000  0.86846000  1
  C  C2012  1  0.26616000  0.63154000  0.10536000  1
  C  C2013  1  0.26616000  0.36846000  0.89464000  1
  C  C2014  1  0.63154000  0.39464000  0.23384000  1
  C  C2015  1  0.36846000  0.39464000  0.76616000  1
  C  C2016  1  0.76616000  0.89464000  0.86846000  1
  C  C2017  1  0.10536000  0.76616000  0.86846000  1
  C  C2018  1  0.23384000  0.10536000  0.86846000  1
  C  C2019  1  0.89464000  0.23384000  0.86846000  1
  C  C2020  1  0.76616000  0.13154000  0.89464000  1
  C  C2021  1  0.76616000  0.10536000  0.13154000  1
  C  C2022  1  0.76616000  0.86846000  0.10536000  1
  C  C2023  1  0.86846000  0.89464000  0.23384000  1
  C  C2024  1  0.23384000  0.89464000  0.13154000  1
  C  C2025  1  0.13154000  0.89464000  0.76616000  1
  C  C2026  1  0.86846000  0.76616000  0.89464000  1
  C  C2027  1  0.89464000  0.86846000  0.76616000  1
  C  C2028  1  0.10536000  0.13154000  0.76616000  1
  C  C2029  1  0.86846000  0.23384000  0.10536000  1
  C  C2030  1  0.10536000  0.86846000  0.23384000  1
  C  C2031  1  0.13154000  0.23384000  0.89464000  1
  C  C2032  1  0.13154000  0.76616000  0.10536000  1
  C  C2033  1  0.89464000  0.13154000  0.23384000  1
  C  C2034  1  0.89464000  0.76616000  0.13154000  1
  C  C2035  1  0.10536000  0.23384000  0.13154000  1
  C  C2036  1  0.23384000  0.86846000  0.89464000  1
  C  C2037  1  0.23384000  0.13154000  0.10536000  1
  C  C2038  1  0.86846000  0.10536000  0.76616000  1
  C  C2039  1  0.13154000  0.10536000  0.23384000  1
  C  C2040  1  0.76616000  0.39464000  0.36846000  1
  C  C2041  1  0.10536000  0.26616000  0.36846000  1
  C  C2042  1  0.23384000  0.60536000  0.36846000  1
  C  C2043  1  0.89464000  0.73384000  0.36846000  1
  C  C2044  1  0.76616000  0.63154000  0.39464000  1
  C  C2045  1  0.76616000  0.60536000  0.63154000  1
  C  C2046  1  0.76616000  0.36846000  0.60536000  1
  C  C2047  1  0.86846000  0.39464000  0.73384000  1
  C  C2048  1  0.23384000  0.39464000  0.63154000  1
  C  C2049  1  0.13154000  0.39464000  0.26616000  1
  C  C2050  1  0.86846000  0.26616000  0.39464000  1
  C  C2051  1  0.89464000  0.36846000  0.26616000  1
  C  C2052  1  0.10536000  0.63154000  0.26616000  1
  C  C2053  1  0.86846000  0.73384000  0.60536000  1
  C  C2054  1  0.10536000  0.36846000  0.73384000  1
  C  C2055  1  0.13154000  0.73384000  0.39464000  1
  C  C2056  1  0.13154000  0.26616000  0.60536000  1
  C  C2057  1  0.89464000  0.63154000  0.73384000  1
  C  C2058  1  0.89464000  0.26616000  0.63154000  1
  C  C2059  1  0.10536000  0.73384000  0.63154000  1
  C  C2060  1  0.23384000  0.36846000  0.39464000  1
  C  C2061  1  0.23384000  0.63154000  0.60536000  1
  C  C2062  1  0.86846000  0.60536000  0.26616000  1
  C  C2063  1  0.13154000  0.60536000  0.73384000  1
  C  C2064  1  0.26616000  0.89464000  0.36846000  1
  C  C2065  1  0.60536000  0.76616000  0.36846000  1
  C  C2066  1  0.73384000  0.10536000  0.36846000  1
  C  C2067  1  0.39464000  0.23384000  0.36846000  1
  C  C2068  1  0.26616000  0.13154000  0.39464000  1
  C  C2069  1  0.26616000  0.10536000  0.63154000  1
  C  C2070  1  0.26616000  0.86846000  0.60536000  1
  C  C2071  1  0.36846000  0.89464000  0.73384000  1
  C  C2072  1  0.73384000  0.89464000  0.63154000  1
  C  C2073  1  0.63154000  0.89464000  0.26616000  1
  C  C2074  1  0.36846000  0.76616000  0.39464000  1
  C  C2075  1  0.39464000  0.86846000  0.26616000  1
  C  C2076  1  0.60536000  0.13154000  0.26616000  1
  C  C2077  1  0.36846000  0.23384000  0.60536000  1
  C  C2078  1  0.60536000  0.86846000  0.73384000  1
  C  C2079  1  0.63154000  0.23384000  0.39464000  1
  C  C2080  1  0.63154000  0.76616000  0.60536000  1
  C  C2081  1  0.39464000  0.13154000  0.73384000  1
  C  C2082  1  0.39464000  0.76616000  0.63154000  1
  C  C2083  1  0.60536000  0.23384000  0.63154000  1
  C  C2084  1  0.73384000  0.86846000  0.39464000  1
  C  C2085  1  0.73384000  0.13154000  0.60536000  1
  C  C2086  1  0.36846000  0.10536000  0.26616000  1
  C  C2087  1  0.63154000  0.10536000  0.73384000  1
  C  C2088  1  0.26616000  0.39464000  0.86846000  1
  C  C2089  1  0.60536000  0.26616000  0.86846000  1
  C  C2090  1  0.73384000  0.60536000  0.86846000  1
  C  C2091  1  0.39464000  0.73384000  0.86846000  1
  C  C2092  1  0.26616000  0.63154000  0.89464000  1
  C  C2093  1  0.26616000  0.60536000  0.13154000  1
  C  C2094  1  0.26616000  0.36846000  0.10536000  1
  C  C2095  1  0.36846000  0.39464000  0.23384000  1
  C  C2096  1  0.73384000  0.39464000  0.13154000  1
  C  C2097  1  0.63154000  0.39464000  0.76616000  1
  C  C2098  1  0.36846000  0.26616000  0.89464000  1
  C  C2099  1  0.39464000  0.36846000  0.76616000  1
  C  C2100  1  0.60536000  0.63154000  0.76616000  1
  C  C2101  1  0.36846000  0.73384000  0.10536000  1
  C  C2102  1  0.60536000  0.36846000  0.23384000  1
  C  C2103  1  0.63154000  0.73384000  0.89464000  1
  C  C2104  1  0.63154000  0.26616000  0.10536000  1
  C  C2105  1  0.39464000  0.63154000  0.23384000  1
  C  C2106  1  0.39464000  0.26616000  0.13154000  1
  C  C2107  1  0.60536000  0.73384000  0.13154000  1
  C  C2108  1  0.73384000  0.36846000  0.89464000  1
  C  C2109  1  0.73384000  0.63154000  0.10536000  1
  C  C2110  1  0.36846000  0.60536000  0.76616000  1
  C  C2111  1  0.63154000  0.60536000  0.23384000  1
  H  H2112  1  0.24680000  0.09890000  0.14250000  1
  H  H2113  1  0.90110000  0.24680000  0.14250000  1
  H  H2114  1  0.75320000  0.90110000  0.14250000  1
  H  H2115  1  0.09890000  0.75320000  0.14250000  1
  H  H2116  1  0.24680000  0.85750000  0.09890000  1
  H  H2117  1  0.24680000  0.90110000  0.85750000  1
  H  H2118  1  0.24680000  0.14250000  0.90110000  1
  H  H2119  1  0.14250000  0.09890000  0.75320000  1
  H  H2120  1  0.75320000  0.09890000  0.85750000  1
  H  H2121  1  0.85750000  0.09890000  0.24680000  1
  H  H2122  1  0.14250000  0.24680000  0.09890000  1
  H  H2123  1  0.09890000  0.14250000  0.24680000  1
  H  H2124  1  0.90110000  0.85750000  0.24680000  1
  H  H2125  1  0.14250000  0.75320000  0.90110000  1
  H  H2126  1  0.90110000  0.14250000  0.75320000  1
  H  H2127  1  0.85750000  0.75320000  0.09890000  1
  H  H2128  1  0.85750000  0.24680000  0.90110000  1
  H  H2129  1  0.09890000  0.85750000  0.75320000  1
  H  H2130  1  0.09890000  0.24680000  0.85750000  1
  H  H2131  1  0.90110000  0.75320000  0.85750000  1
  H  H2132  1  0.75320000  0.14250000  0.09890000  1
  H  H2133  1  0.75320000  0.85750000  0.90110000  1
  H  H2134  1  0.14250000  0.90110000  0.24680000  1
  H  H2135  1  0.85750000  0.90110000  0.75320000  1
  H  H2136  1  0.24680000  0.59890000  0.64250000  1
  H  H2137  1  0.90110000  0.74680000  0.64250000  1
  H  H2138  1  0.75320000  0.40110000  0.64250000  1
  H  H2139  1  0.09890000  0.25320000  0.64250000  1
  H  H2140  1  0.24680000  0.35750000  0.59890000  1
  H  H2141  1  0.24680000  0.40110000  0.35750000  1
  H  H2142  1  0.24680000  0.64250000  0.40110000  1
  H  H2143  1  0.14250000  0.59890000  0.25320000  1
  H  H2144  1  0.75320000  0.59890000  0.35750000  1
  H  H2145  1  0.85750000  0.59890000  0.74680000  1
  H  H2146  1  0.14250000  0.74680000  0.59890000  1
  H  H2147  1  0.09890000  0.64250000  0.74680000  1
  H  H2148  1  0.90110000  0.35750000  0.74680000  1
  H  H2149  1  0.14250000  0.25320000  0.40110000  1
  H  H2150  1  0.90110000  0.64250000  0.25320000  1
  H  H2151  1  0.85750000  0.25320000  0.59890000  1
  H  H2152  1  0.85750000  0.74680000  0.40110000  1
  H  H2153  1  0.09890000  0.35750000  0.25320000  1
  H  H2154  1  0.09890000  0.74680000  0.35750000  1
  H  H2155  1  0.90110000  0.25320000  0.35750000  1
  H  H2156  1  0.75320000  0.64250000  0.59890000  1
  H  H2157  1  0.75320000  0.35750000  0.40110000  1
  H  H2158  1  0.14250000  0.40110000  0.74680000  1
  H  H2159  1  0.85750000  0.40110000  0.25320000  1
  H  H2160  1  0.74680000  0.09890000  0.64250000  1
  H  H2161  1  0.40110000  0.24680000  0.64250000  1
  H  H2162  1  0.25320000  0.90110000  0.64250000  1
  H  H2163  1  0.59890000  0.75320000  0.64250000  1
  H  H2164  1  0.74680000  0.85750000  0.59890000  1
  H  H2165  1  0.74680000  0.90110000  0.35750000  1
  H  H2166  1  0.74680000  0.14250000  0.40110000  1
  H  H2167  1  0.64250000  0.09890000  0.25320000  1
  H  H2168  1  0.25320000  0.09890000  0.35750000  1
  H  H2169  1  0.35750000  0.09890000  0.74680000  1
  H  H2170  1  0.64250000  0.24680000  0.59890000  1
  H  H2171  1  0.59890000  0.14250000  0.74680000  1
  H  H2172  1  0.40110000  0.85750000  0.74680000  1
  H  H2173  1  0.64250000  0.75320000  0.40110000  1
  H  H2174  1  0.40110000  0.14250000  0.25320000  1
  H  H2175  1  0.35750000  0.75320000  0.59890000  1
  H  H2176  1  0.35750000  0.24680000  0.40110000  1
  H  H2177  1  0.59890000  0.85750000  0.25320000  1
  H  H2178  1  0.59890000  0.24680000  0.35750000  1
  H  H2179  1  0.40110000  0.75320000  0.35750000  1
  H  H2180  1  0.25320000  0.14250000  0.59890000  1
  H  H2181  1  0.25320000  0.85750000  0.40110000  1
  H  H2182  1  0.64250000  0.90110000  0.74680000  1
  H  H2183  1  0.35750000  0.90110000  0.25320000  1
  H  H2184  1  0.74680000  0.59890000  0.14250000  1
  H  H2185  1  0.40110000  0.74680000  0.14250000  1
  H  H2186  1  0.25320000  0.40110000  0.14250000  1
  H  H2187  1  0.59890000  0.25320000  0.14250000  1
  H  H2188  1  0.74680000  0.35750000  0.09890000  1
  H  H2189  1  0.74680000  0.40110000  0.85750000  1
  H  H2190  1  0.74680000  0.64250000  0.90110000  1
  H  H2191  1  0.64250000  0.59890000  0.75320000  1
  H  H2192  1  0.25320000  0.59890000  0.85750000  1
  H  H2193  1  0.35750000  0.59890000  0.24680000  1
  H  H2194  1  0.64250000  0.74680000  0.09890000  1
  H  H2195  1  0.59890000  0.64250000  0.24680000  1
  H  H2196  1  0.40110000  0.35750000  0.24680000  1
  H  H2197  1  0.64250000  0.25320000  0.90110000  1
  H  H2198  1  0.40110000  0.64250000  0.75320000  1
  H  H2199  1  0.35750000  0.25320000  0.09890000  1
  H  H2200  1  0.35750000  0.74680000  0.90110000  1
  H  H2201  1  0.59890000  0.35750000  0.75320000  1
  H  H2202  1  0.59890000  0.74680000  0.85750000  1
  H  H2203  1  0.40110000  0.25320000  0.85750000  1
  H  H2204  1  0.25320000  0.64250000  0.09890000  1
  H  H2205  1  0.25320000  0.35750000  0.90110000  1
  H  H2206  1  0.64250000  0.40110000  0.24680000  1
  H  H2207  1  0.35750000  0.40110000  0.75320000  1
  H  H2208  1  0.75320000  0.90110000  0.85750000  1
  H  H2209  1  0.09890000  0.75320000  0.85750000  1
  H  H2210  1  0.24680000  0.09890000  0.85750000  1
  H  H2211  1  0.90110000  0.24680000  0.85750000  1
  H  H2212  1  0.75320000  0.14250000  0.90110000  1
  H  H2213  1  0.75320000  0.09890000  0.14250000  1
  H  H2214  1  0.75320000  0.85750000  0.09890000  1
  H  H2215  1  0.85750000  0.90110000  0.24680000  1
  H  H2216  1  0.24680000  0.90110000  0.14250000  1
  H  H2217  1  0.14250000  0.90110000  0.75320000  1
  H  H2218  1  0.85750000  0.75320000  0.90110000  1
  H  H2219  1  0.90110000  0.85750000  0.75320000  1
  H  H2220  1  0.09890000  0.14250000  0.75320000  1
  H  H2221  1  0.85750000  0.24680000  0.09890000  1
  H  H2222  1  0.09890000  0.85750000  0.24680000  1
  H  H2223  1  0.14250000  0.24680000  0.90110000  1
  H  H2224  1  0.14250000  0.75320000  0.09890000  1
  H  H2225  1  0.90110000  0.14250000  0.24680000  1
  H  H2226  1  0.90110000  0.75320000  0.14250000  1
  H  H2227  1  0.09890000  0.24680000  0.14250000  1
  H  H2228  1  0.24680000  0.85750000  0.90110000  1
  H  H2229  1  0.24680000  0.14250000  0.09890000  1
  H  H2230  1  0.85750000  0.09890000  0.75320000  1
  H  H2231  1  0.14250000  0.09890000  0.24680000  1
  H  H2232  1  0.75320000  0.40110000  0.35750000  1
  H  H2233  1  0.09890000  0.25320000  0.35750000  1
  H  H2234  1  0.24680000  0.59890000  0.35750000  1
  H  H2235  1  0.90110000  0.74680000  0.35750000  1
  H  H2236  1  0.75320000  0.64250000  0.40110000  1
  H  H2237  1  0.75320000  0.59890000  0.64250000  1
  H  H2238  1  0.75320000  0.35750000  0.59890000  1
  H  H2239  1  0.85750000  0.40110000  0.74680000  1
  H  H2240  1  0.24680000  0.40110000  0.64250000  1
  H  H2241  1  0.14250000  0.40110000  0.25320000  1
  H  H2242  1  0.85750000  0.25320000  0.40110000  1
  H  H2243  1  0.90110000  0.35750000  0.25320000  1
  H  H2244  1  0.09890000  0.64250000  0.25320000  1
  H  H2245  1  0.85750000  0.74680000  0.59890000  1
  H  H2246  1  0.09890000  0.35750000  0.74680000  1
  H  H2247  1  0.14250000  0.74680000  0.40110000  1
  H  H2248  1  0.14250000  0.25320000  0.59890000  1
  H  H2249  1  0.90110000  0.64250000  0.74680000  1
  H  H2250  1  0.90110000  0.25320000  0.64250000  1
  H  H2251  1  0.09890000  0.74680000  0.64250000  1
  H  H2252  1  0.24680000  0.35750000  0.40110000  1
  H  H2253  1  0.24680000  0.64250000  0.59890000  1
  H  H2254  1  0.85750000  0.59890000  0.25320000  1
  H  H2255  1  0.14250000  0.59890000  0.74680000  1
  H  H2256  1  0.25320000  0.90110000  0.35750000  1
  H  H2257  1  0.59890000  0.75320000  0.35750000  1
  H  H2258  1  0.74680000  0.09890000  0.35750000  1
  H  H2259  1  0.40110000  0.24680000  0.35750000  1
  H  H2260  1  0.25320000  0.14250000  0.40110000  1
  H  H2261  1  0.25320000  0.09890000  0.64250000  1
  H  H2262  1  0.25320000  0.85750000  0.59890000  1
  H  H2263  1  0.35750000  0.90110000  0.74680000  1
  H  H2264  1  0.74680000  0.90110000  0.64250000  1
  H  H2265  1  0.64250000  0.90110000  0.25320000  1
  H  H2266  1  0.35750000  0.75320000  0.40110000  1
  H  H2267  1  0.40110000  0.85750000  0.25320000  1
  H  H2268  1  0.59890000  0.14250000  0.25320000  1
  H  H2269  1  0.35750000  0.24680000  0.59890000  1
  H  H2270  1  0.59890000  0.85750000  0.74680000  1
  H  H2271  1  0.64250000  0.24680000  0.40110000  1
  H  H2272  1  0.64250000  0.75320000  0.59890000  1
  H  H2273  1  0.40110000  0.14250000  0.74680000  1
  H  H2274  1  0.40110000  0.75320000  0.64250000  1
  H  H2275  1  0.59890000  0.24680000  0.64250000  1
  H  H2276  1  0.74680000  0.85750000  0.40110000  1
  H  H2277  1  0.74680000  0.14250000  0.59890000  1
  H  H2278  1  0.35750000  0.09890000  0.25320000  1
  H  H2279  1  0.64250000  0.09890000  0.74680000  1
  H  H2280  1  0.25320000  0.40110000  0.85750000  1
  H  H2281  1  0.59890000  0.25320000  0.85750000  1
  H  H2282  1  0.74680000  0.59890000  0.85750000  1
  H  H2283  1  0.40110000  0.74680000  0.85750000  1
  H  H2284  1  0.25320000  0.64250000  0.90110000  1
  H  H2285  1  0.25320000  0.59890000  0.14250000  1
  H  H2286  1  0.25320000  0.35750000  0.09890000  1
  H  H2287  1  0.35750000  0.40110000  0.24680000  1
  H  H2288  1  0.74680000  0.40110000  0.14250000  1
  H  H2289  1  0.64250000  0.40110000  0.75320000  1
  H  H2290  1  0.35750000  0.25320000  0.90110000  1
  H  H2291  1  0.40110000  0.35750000  0.75320000  1
  H  H2292  1  0.59890000  0.64250000  0.75320000  1
  H  H2293  1  0.35750000  0.74680000  0.09890000  1
  H  H2294  1  0.59890000  0.35750000  0.24680000  1
  H  H2295  1  0.64250000  0.74680000  0.90110000  1
  H  H2296  1  0.64250000  0.25320000  0.09890000  1
  H  H2297  1  0.40110000  0.64250000  0.24680000  1
  H  H2298  1  0.40110000  0.25320000  0.14250000  1
  H  H2299  1  0.59890000  0.74680000  0.14250000  1
  H  H2300  1  0.74680000  0.35750000  0.90110000  1
  H  H2301  1  0.74680000  0.64250000  0.09890000  1
  H  H2302  1  0.35750000  0.59890000  0.75320000  1
  H  H2303  1  0.64250000  0.59890000  0.24680000  1
  C  C2304  1  0.21166000  0.11645000  0.14253000  1
  C  C2305  1  0.88355000  0.21166000  0.14253000  1
  C  C2306  1  0.78834000  0.88355000  0.14253000  1
  C  C2307  1  0.11645000  0.78834000  0.14253000  1
  C  C2308  1  0.21166000  0.85747000  0.11645000  1
  C  C2309  1  0.21166000  0.88355000  0.85747000  1
  C  C2310  1  0.21166000  0.14253000  0.88355000  1
  C  C2311  1  0.14253000  0.11645000  0.78834000  1
  C  C2312  1  0.78834000  0.11645000  0.85747000  1
  C  C2313  1  0.85747000  0.11645000  0.21166000  1
  C  C2314  1  0.14253000  0.21166000  0.11645000  1
  C  C2315  1  0.11645000  0.14253000  0.21166000  1
  C  C2316  1  0.88355000  0.85747000  0.21166000  1
  C  C2317  1  0.14253000  0.78834000  0.88355000  1
  C  C2318  1  0.88355000  0.14253000  0.78834000  1
  C  C2319  1  0.85747000  0.78834000  0.11645000  1
  C  C2320  1  0.85747000  0.21166000  0.88355000  1
  C  C2321  1  0.11645000  0.85747000  0.78834000  1
  C  C2322  1  0.11645000  0.21166000  0.85747000  1
  C  C2323  1  0.88355000  0.78834000  0.85747000  1
  C  C2324  1  0.78834000  0.14253000  0.11645000  1
  C  C2325  1  0.78834000  0.85747000  0.88355000  1
  C  C2326  1  0.14253000  0.88355000  0.21166000  1
  C  C2327  1  0.85747000  0.88355000  0.78834000  1
  C  C2328  1  0.21166000  0.61645000  0.64253000  1
  C  C2329  1  0.88355000  0.71166000  0.64253000  1
  C  C2330  1  0.78834000  0.38355000  0.64253000  1
  C  C2331  1  0.11645000  0.28834000  0.64253000  1
  C  C2332  1  0.21166000  0.35747000  0.61645000  1
  C  C2333  1  0.21166000  0.38355000  0.35747000  1
  C  C2334  1  0.21166000  0.64253000  0.38355000  1
  C  C2335  1  0.14253000  0.61645000  0.28834000  1
  C  C2336  1  0.78834000  0.61645000  0.35747000  1
  C  C2337  1  0.85747000  0.61645000  0.71166000  1
  C  C2338  1  0.14253000  0.71166000  0.61645000  1
  C  C2339  1  0.11645000  0.64253000  0.71166000  1
  C  C2340  1  0.88355000  0.35747000  0.71166000  1
  C  C2341  1  0.14253000  0.28834000  0.38355000  1
  C  C2342  1  0.88355000  0.64253000  0.28834000  1
  C  C2343  1  0.85747000  0.28834000  0.61645000  1
  C  C2344  1  0.85747000  0.71166000  0.38355000  1
  C  C2345  1  0.11645000  0.35747000  0.28834000  1
  C  C2346  1  0.11645000  0.71166000  0.35747000  1
  C  C2347  1  0.88355000  0.28834000  0.35747000  1
  C  C2348  1  0.78834000  0.64253000  0.61645000  1
  C  C2349  1  0.78834000  0.35747000  0.38355000  1
  C  C2350  1  0.14253000  0.38355000  0.71166000  1
  C  C2351  1  0.85747000  0.38355000  0.28834000  1
  C  C2352  1  0.71166000  0.11645000  0.64253000  1
  C  C2353  1  0.38355000  0.21166000  0.64253000  1
  C  C2354  1  0.28834000  0.88355000  0.64253000  1
  C  C2355  1  0.61645000  0.78834000  0.64253000  1
  C  C2356  1  0.71166000  0.85747000  0.61645000  1
  C  C2357  1  0.71166000  0.88355000  0.35747000  1
  C  C2358  1  0.71166000  0.14253000  0.38355000  1
  C  C2359  1  0.64253000  0.11645000  0.28834000  1
  C  C2360  1  0.28834000  0.11645000  0.35747000  1
  C  C2361  1  0.35747000  0.11645000  0.71166000  1
  C  C2362  1  0.64253000  0.21166000  0.61645000  1
  C  C2363  1  0.61645000  0.14253000  0.71166000  1
  C  C2364  1  0.38355000  0.85747000  0.71166000  1
  C  C2365  1  0.64253000  0.78834000  0.38355000  1
  C  C2366  1  0.38355000  0.14253000  0.28834000  1
  C  C2367  1  0.35747000  0.78834000  0.61645000  1
  C  C2368  1  0.35747000  0.21166000  0.38355000  1
  C  C2369  1  0.61645000  0.85747000  0.28834000  1
  C  C2370  1  0.61645000  0.21166000  0.35747000  1
  C  C2371  1  0.38355000  0.78834000  0.35747000  1
  C  C2372  1  0.28834000  0.14253000  0.61645000  1
  C  C2373  1  0.28834000  0.85747000  0.38355000  1
  C  C2374  1  0.64253000  0.88355000  0.71166000  1
  C  C2375  1  0.35747000  0.88355000  0.28834000  1
  C  C2376  1  0.71166000  0.61645000  0.14253000  1
  C  C2377  1  0.38355000  0.71166000  0.14253000  1
  C  C2378  1  0.28834000  0.38355000  0.14253000  1
  C  C2379  1  0.61645000  0.28834000  0.14253000  1
  C  C2380  1  0.71166000  0.35747000  0.11645000  1
  C  C2381  1  0.71166000  0.38355000  0.85747000  1
  C  C2382  1  0.71166000  0.64253000  0.88355000  1
  C  C2383  1  0.64253000  0.61645000  0.78834000  1
  C  C2384  1  0.28834000  0.61645000  0.85747000  1
  C  C2385  1  0.35747000  0.61645000  0.21166000  1
  C  C2386  1  0.64253000  0.71166000  0.11645000  1
  C  C2387  1  0.61645000  0.64253000  0.21166000  1
  C  C2388  1  0.38355000  0.35747000  0.21166000  1
  C  C2389  1  0.64253000  0.28834000  0.88355000  1
  C  C2390  1  0.38355000  0.64253000  0.78834000  1
  C  C2391  1  0.35747000  0.28834000  0.11645000  1
  C  C2392  1  0.35747000  0.71166000  0.88355000  1
  C  C2393  1  0.61645000  0.35747000  0.78834000  1
  C  C2394  1  0.61645000  0.71166000  0.85747000  1
  C  C2395  1  0.38355000  0.28834000  0.85747000  1
  C  C2396  1  0.28834000  0.64253000  0.11645000  1
  C  C2397  1  0.28834000  0.35747000  0.88355000  1
  C  C2398  1  0.64253000  0.38355000  0.21166000  1
  C  C2399  1  0.35747000  0.38355000  0.78834000  1
  C  C2400  1  0.78834000  0.88355000  0.85747000  1
  C  C2401  1  0.11645000  0.78834000  0.85747000  1
  C  C2402  1  0.21166000  0.11645000  0.85747000  1
  C  C2403  1  0.88355000  0.21166000  0.85747000  1
  C  C2404  1  0.78834000  0.14253000  0.88355000  1
  C  C2405  1  0.78834000  0.11645000  0.14253000  1
  C  C2406  1  0.78834000  0.85747000  0.11645000  1
  C  C2407  1  0.85747000  0.88355000  0.21166000  1
  C  C2408  1  0.21166000  0.88355000  0.14253000  1
  C  C2409  1  0.14253000  0.88355000  0.78834000  1
  C  C2410  1  0.85747000  0.78834000  0.88355000  1
  C  C2411  1  0.88355000  0.85747000  0.78834000  1
  C  C2412  1  0.11645000  0.14253000  0.78834000  1
  C  C2413  1  0.85747000  0.21166000  0.11645000  1
  C  C2414  1  0.11645000  0.85747000  0.21166000  1
  C  C2415  1  0.14253000  0.21166000  0.88355000  1
  C  C2416  1  0.14253000  0.78834000  0.11645000  1
  C  C2417  1  0.88355000  0.14253000  0.21166000  1
  C  C2418  1  0.88355000  0.78834000  0.14253000  1
  C  C2419  1  0.11645000  0.21166000  0.14253000  1
  C  C2420  1  0.21166000  0.85747000  0.88355000  1
  C  C2421  1  0.21166000  0.14253000  0.11645000  1
  C  C2422  1  0.85747000  0.11645000  0.78834000  1
  C  C2423  1  0.14253000  0.11645000  0.21166000  1
  C  C2424  1  0.78834000  0.38355000  0.35747000  1
  C  C2425  1  0.11645000  0.28834000  0.35747000  1
  C  C2426  1  0.21166000  0.61645000  0.35747000  1
  C  C2427  1  0.88355000  0.71166000  0.35747000  1
  C  C2428  1  0.78834000  0.64253000  0.38355000  1
  C  C2429  1  0.78834000  0.61645000  0.64253000  1
  C  C2430  1  0.78834000  0.35747000  0.61645000  1
  C  C2431  1  0.85747000  0.38355000  0.71166000  1
  C  C2432  1  0.21166000  0.38355000  0.64253000  1
  C  C2433  1  0.14253000  0.38355000  0.28834000  1
  C  C2434  1  0.85747000  0.28834000  0.38355000  1
  C  C2435  1  0.88355000  0.35747000  0.28834000  1
  C  C2436  1  0.11645000  0.64253000  0.28834000  1
  C  C2437  1  0.85747000  0.71166000  0.61645000  1
  C  C2438  1  0.11645000  0.35747000  0.71166000  1
  C  C2439  1  0.14253000  0.71166000  0.38355000  1
  C  C2440  1  0.14253000  0.28834000  0.61645000  1
  C  C2441  1  0.88355000  0.64253000  0.71166000  1
  C  C2442  1  0.88355000  0.28834000  0.64253000  1
  C  C2443  1  0.11645000  0.71166000  0.64253000  1
  C  C2444  1  0.21166000  0.35747000  0.38355000  1
  C  C2445  1  0.21166000  0.64253000  0.61645000  1
  C  C2446  1  0.85747000  0.61645000  0.28834000  1
  C  C2447  1  0.14253000  0.61645000  0.71166000  1
  C  C2448  1  0.28834000  0.88355000  0.35747000  1
  C  C2449  1  0.61645000  0.78834000  0.35747000  1
  C  C2450  1  0.71166000  0.11645000  0.35747000  1
  C  C2451  1  0.38355000  0.21166000  0.35747000  1
  C  C2452  1  0.28834000  0.14253000  0.38355000  1
  C  C2453  1  0.28834000  0.11645000  0.64253000  1
  C  C2454  1  0.28834000  0.85747000  0.61645000  1
  C  C2455  1  0.35747000  0.88355000  0.71166000  1
  C  C2456  1  0.71166000  0.88355000  0.64253000  1
  C  C2457  1  0.64253000  0.88355000  0.28834000  1
  C  C2458  1  0.35747000  0.78834000  0.38355000  1
  C  C2459  1  0.38355000  0.85747000  0.28834000  1
  C  C2460  1  0.61645000  0.14253000  0.28834000  1
  C  C2461  1  0.35747000  0.21166000  0.61645000  1
  C  C2462  1  0.61645000  0.85747000  0.71166000  1
  C  C2463  1  0.64253000  0.21166000  0.38355000  1
  C  C2464  1  0.64253000  0.78834000  0.61645000  1
  C  C2465  1  0.38355000  0.14253000  0.71166000  1
  C  C2466  1  0.38355000  0.78834000  0.64253000  1
  C  C2467  1  0.61645000  0.21166000  0.64253000  1
  C  C2468  1  0.71166000  0.85747000  0.38355000  1
  C  C2469  1  0.71166000  0.14253000  0.61645000  1
  C  C2470  1  0.35747000  0.11645000  0.28834000  1
  C  C2471  1  0.64253000  0.11645000  0.71166000  1
  C  C2472  1  0.28834000  0.38355000  0.85747000  1
  C  C2473  1  0.61645000  0.28834000  0.85747000  1
  C  C2474  1  0.71166000  0.61645000  0.85747000  1
  C  C2475  1  0.38355000  0.71166000  0.85747000  1
  C  C2476  1  0.28834000  0.64253000  0.88355000  1
  C  C2477  1  0.28834000  0.61645000  0.14253000  1
  C  C2478  1  0.28834000  0.35747000  0.11645000  1
  C  C2479  1  0.35747000  0.38355000  0.21166000  1
  C  C2480  1  0.71166000  0.38355000  0.14253000  1
  C  C2481  1  0.64253000  0.38355000  0.78834000  1
  C  C2482  1  0.35747000  0.28834000  0.88355000  1
  C  C2483  1  0.38355000  0.35747000  0.78834000  1
  C  C2484  1  0.61645000  0.64253000  0.78834000  1
  C  C2485  1  0.35747000  0.71166000  0.11645000  1
  C  C2486  1  0.61645000  0.35747000  0.21166000  1
  C  C2487  1  0.64253000  0.71166000  0.88355000  1
  C  C2488  1  0.64253000  0.28834000  0.11645000  1
  C  C2489  1  0.38355000  0.64253000  0.21166000  1
  C  C2490  1  0.38355000  0.28834000  0.14253000  1
  C  C2491  1  0.61645000  0.71166000  0.14253000  1
  C  C2492  1  0.71166000  0.35747000  0.88355000  1
  C  C2493  1  0.71166000  0.64253000  0.11645000  1
  C  C2494  1  0.35747000  0.61645000  0.78834000  1
  C  C2495  1  0.64253000  0.61645000  0.21166000  1
  H  H2496  1  0.20830000  0.11690000  0.16040000  1
  H  H2497  1  0.88310000  0.20830000  0.16040000  1
  H  H2498  1  0.79170000  0.88310000  0.16040000  1
  H  H2499  1  0.11690000  0.79170000  0.16040000  1
  H  H2500  1  0.20830000  0.83960000  0.11690000  1
  H  H2501  1  0.20830000  0.88310000  0.83960000  1
  H  H2502  1  0.20830000  0.16040000  0.88310000  1
  H  H2503  1  0.16040000  0.11690000  0.79170000  1
  H  H2504  1  0.79170000  0.11690000  0.83960000  1
  H  H2505  1  0.83960000  0.11690000  0.20830000  1
  H  H2506  1  0.16040000  0.20830000  0.11690000  1
  H  H2507  1  0.11690000  0.16040000  0.20830000  1
  H  H2508  1  0.88310000  0.83960000  0.20830000  1
  H  H2509  1  0.16040000  0.79170000  0.88310000  1
  H  H2510  1  0.88310000  0.16040000  0.79170000  1
  H  H2511  1  0.83960000  0.79170000  0.11690000  1
  H  H2512  1  0.83960000  0.20830000  0.88310000  1
  H  H2513  1  0.11690000  0.83960000  0.79170000  1
  H  H2514  1  0.11690000  0.20830000  0.83960000  1
  H  H2515  1  0.88310000  0.79170000  0.83960000  1
  H  H2516  1  0.79170000  0.16040000  0.11690000  1
  H  H2517  1  0.79170000  0.83960000  0.88310000  1
  H  H2518  1  0.16040000  0.88310000  0.20830000  1
  H  H2519  1  0.83960000  0.88310000  0.79170000  1
  H  H2520  1  0.20830000  0.61690000  0.66040000  1
  H  H2521  1  0.88310000  0.70830000  0.66040000  1
  H  H2522  1  0.79170000  0.38310000  0.66040000  1
  H  H2523  1  0.11690000  0.29170000  0.66040000  1
  H  H2524  1  0.20830000  0.33960000  0.61690000  1
  H  H2525  1  0.20830000  0.38310000  0.33960000  1
  H  H2526  1  0.20830000  0.66040000  0.38310000  1
  H  H2527  1  0.16040000  0.61690000  0.29170000  1
  H  H2528  1  0.79170000  0.61690000  0.33960000  1
  H  H2529  1  0.83960000  0.61690000  0.70830000  1
  H  H2530  1  0.16040000  0.70830000  0.61690000  1
  H  H2531  1  0.11690000  0.66040000  0.70830000  1
  H  H2532  1  0.88310000  0.33960000  0.70830000  1
  H  H2533  1  0.16040000  0.29170000  0.38310000  1
  H  H2534  1  0.88310000  0.66040000  0.29170000  1
  H  H2535  1  0.83960000  0.29170000  0.61690000  1
  H  H2536  1  0.83960000  0.70830000  0.38310000  1
  H  H2537  1  0.11690000  0.33960000  0.29170000  1
  H  H2538  1  0.11690000  0.70830000  0.33960000  1
  H  H2539  1  0.88310000  0.29170000  0.33960000  1
  H  H2540  1  0.79170000  0.66040000  0.61690000  1
  H  H2541  1  0.79170000  0.33960000  0.38310000  1
  H  H2542  1  0.16040000  0.38310000  0.70830000  1
  H  H2543  1  0.83960000  0.38310000  0.29170000  1
  H  H2544  1  0.70830000  0.11690000  0.66040000  1
  H  H2545  1  0.38310000  0.20830000  0.66040000  1
  H  H2546  1  0.29170000  0.88310000  0.66040000  1
  H  H2547  1  0.61690000  0.79170000  0.66040000  1
  H  H2548  1  0.70830000  0.83960000  0.61690000  1
  H  H2549  1  0.70830000  0.88310000  0.33960000  1
  H  H2550  1  0.70830000  0.16040000  0.38310000  1
  H  H2551  1  0.66040000  0.11690000  0.29170000  1
  H  H2552  1  0.29170000  0.11690000  0.33960000  1
  H  H2553  1  0.33960000  0.11690000  0.70830000  1
  H  H2554  1  0.66040000  0.20830000  0.61690000  1
  H  H2555  1  0.61690000  0.16040000  0.70830000  1
  H  H2556  1  0.38310000  0.83960000  0.70830000  1
  H  H2557  1  0.66040000  0.79170000  0.38310000  1
  H  H2558  1  0.38310000  0.16040000  0.29170000  1
  H  H2559  1  0.33960000  0.79170000  0.61690000  1
  H  H2560  1  0.33960000  0.20830000  0.38310000  1
  H  H2561  1  0.61690000  0.83960000  0.29170000  1
  H  H2562  1  0.61690000  0.20830000  0.33960000  1
  H  H2563  1  0.38310000  0.79170000  0.33960000  1
  H  H2564  1  0.29170000  0.16040000  0.61690000  1
  H  H2565  1  0.29170000  0.83960000  0.38310000  1
  H  H2566  1  0.66040000  0.88310000  0.70830000  1
  H  H2567  1  0.33960000  0.88310000  0.29170000  1
  H  H2568  1  0.70830000  0.61690000  0.16040000  1
  H  H2569  1  0.38310000  0.70830000  0.16040000  1
  H  H2570  1  0.29170000  0.38310000  0.16040000  1
  H  H2571  1  0.61690000  0.29170000  0.16040000  1
  H  H2572  1  0.70830000  0.33960000  0.11690000  1
  H  H2573  1  0.70830000  0.38310000  0.83960000  1
  H  H2574  1  0.70830000  0.66040000  0.88310000  1
  H  H2575  1  0.66040000  0.61690000  0.79170000  1
  H  H2576  1  0.29170000  0.61690000  0.83960000  1
  H  H2577  1  0.33960000  0.61690000  0.20830000  1
  H  H2578  1  0.66040000  0.70830000  0.11690000  1
  H  H2579  1  0.61690000  0.66040000  0.20830000  1
  H  H2580  1  0.38310000  0.33960000  0.20830000  1
  H  H2581  1  0.66040000  0.29170000  0.88310000  1
  H  H2582  1  0.38310000  0.66040000  0.79170000  1
  H  H2583  1  0.33960000  0.29170000  0.11690000  1
  H  H2584  1  0.33960000  0.70830000  0.88310000  1
  H  H2585  1  0.61690000  0.33960000  0.79170000  1
  H  H2586  1  0.61690000  0.70830000  0.83960000  1
  H  H2587  1  0.38310000  0.29170000  0.83960000  1
  H  H2588  1  0.29170000  0.66040000  0.11690000  1
  H  H2589  1  0.29170000  0.33960000  0.88310000  1
  H  H2590  1  0.66040000  0.38310000  0.20830000  1
  H  H2591  1  0.33960000  0.38310000  0.79170000  1
  H  H2592  1  0.79170000  0.88310000  0.83960000  1
  H  H2593  1  0.11690000  0.79170000  0.83960000  1
  H  H2594  1  0.20830000  0.11690000  0.83960000  1
  H  H2595  1  0.88310000  0.20830000  0.83960000  1
  H  H2596  1  0.79170000  0.16040000  0.88310000  1
  H  H2597  1  0.79170000  0.11690000  0.16040000  1
  H  H2598  1  0.79170000  0.83960000  0.11690000  1
  H  H2599  1  0.83960000  0.88310000  0.20830000  1
  H  H2600  1  0.20830000  0.88310000  0.16040000  1
  H  H2601  1  0.16040000  0.88310000  0.79170000  1
  H  H2602  1  0.83960000  0.79170000  0.88310000  1
  H  H2603  1  0.88310000  0.83960000  0.79170000  1
  H  H2604  1  0.11690000  0.16040000  0.79170000  1
  H  H2605  1  0.83960000  0.20830000  0.11690000  1
  H  H2606  1  0.11690000  0.83960000  0.20830000  1
  H  H2607  1  0.16040000  0.20830000  0.88310000  1
  H  H2608  1  0.16040000  0.79170000  0.11690000  1
  H  H2609  1  0.88310000  0.16040000  0.20830000  1
  H  H2610  1  0.88310000  0.79170000  0.16040000  1
  H  H2611  1  0.11690000  0.20830000  0.16040000  1
  H  H2612  1  0.20830000  0.83960000  0.88310000  1
  H  H2613  1  0.20830000  0.16040000  0.11690000  1
  H  H2614  1  0.83960000  0.11690000  0.79170000  1
  H  H2615  1  0.16040000  0.11690000  0.20830000  1
  H  H2616  1  0.79170000  0.38310000  0.33960000  1
  H  H2617  1  0.11690000  0.29170000  0.33960000  1
  H  H2618  1  0.20830000  0.61690000  0.33960000  1
  H  H2619  1  0.88310000  0.70830000  0.33960000  1
  H  H2620  1  0.79170000  0.66040000  0.38310000  1
  H  H2621  1  0.79170000  0.61690000  0.66040000  1
  H  H2622  1  0.79170000  0.33960000  0.61690000  1
  H  H2623  1  0.83960000  0.38310000  0.70830000  1
  H  H2624  1  0.20830000  0.38310000  0.66040000  1
  H  H2625  1  0.16040000  0.38310000  0.29170000  1
  H  H2626  1  0.83960000  0.29170000  0.38310000  1
  H  H2627  1  0.88310000  0.33960000  0.29170000  1
  H  H2628  1  0.11690000  0.66040000  0.29170000  1
  H  H2629  1  0.83960000  0.70830000  0.61690000  1
  H  H2630  1  0.11690000  0.33960000  0.70830000  1
  H  H2631  1  0.16040000  0.70830000  0.38310000  1
  H  H2632  1  0.16040000  0.29170000  0.61690000  1
  H  H2633  1  0.88310000  0.66040000  0.70830000  1
  H  H2634  1  0.88310000  0.29170000  0.66040000  1
  H  H2635  1  0.11690000  0.70830000  0.66040000  1
  H  H2636  1  0.20830000  0.33960000  0.38310000  1
  H  H2637  1  0.20830000  0.66040000  0.61690000  1
  H  H2638  1  0.83960000  0.61690000  0.29170000  1
  H  H2639  1  0.16040000  0.61690000  0.70830000  1
  H  H2640  1  0.29170000  0.88310000  0.33960000  1
  H  H2641  1  0.61690000  0.79170000  0.33960000  1
  H  H2642  1  0.70830000  0.11690000  0.33960000  1
  H  H2643  1  0.38310000  0.20830000  0.33960000  1
  H  H2644  1  0.29170000  0.16040000  0.38310000  1
  H  H2645  1  0.29170000  0.11690000  0.66040000  1
  H  H2646  1  0.29170000  0.83960000  0.61690000  1
  H  H2647  1  0.33960000  0.88310000  0.70830000  1
  H  H2648  1  0.70830000  0.88310000  0.66040000  1
  H  H2649  1  0.66040000  0.88310000  0.29170000  1
  H  H2650  1  0.33960000  0.79170000  0.38310000  1
  H  H2651  1  0.38310000  0.83960000  0.29170000  1
  H  H2652  1  0.61690000  0.16040000  0.29170000  1
  H  H2653  1  0.33960000  0.20830000  0.61690000  1
  H  H2654  1  0.61690000  0.83960000  0.70830000  1
  H  H2655  1  0.66040000  0.20830000  0.38310000  1
  H  H2656  1  0.66040000  0.79170000  0.61690000  1
  H  H2657  1  0.38310000  0.16040000  0.70830000  1
  H  H2658  1  0.38310000  0.79170000  0.66040000  1
  H  H2659  1  0.61690000  0.20830000  0.66040000  1
  H  H2660  1  0.70830000  0.83960000  0.38310000  1
  H  H2661  1  0.70830000  0.16040000  0.61690000  1
  H  H2662  1  0.33960000  0.11690000  0.29170000  1
  H  H2663  1  0.66040000  0.11690000  0.70830000  1
  H  H2664  1  0.29170000  0.38310000  0.83960000  1
  H  H2665  1  0.61690000  0.29170000  0.83960000  1
  H  H2666  1  0.70830000  0.61690000  0.83960000  1
  H  H2667  1  0.38310000  0.70830000  0.83960000  1
  H  H2668  1  0.29170000  0.66040000  0.88310000  1
  H  H2669  1  0.29170000  0.61690000  0.16040000  1
  H  H2670  1  0.29170000  0.33960000  0.11690000  1
  H  H2671  1  0.33960000  0.38310000  0.20830000  1
  H  H2672  1  0.70830000  0.38310000  0.16040000  1
  H  H2673  1  0.66040000  0.38310000  0.79170000  1
  H  H2674  1  0.33960000  0.29170000  0.88310000  1
  H  H2675  1  0.38310000  0.33960000  0.79170000  1
  H  H2676  1  0.61690000  0.66040000  0.79170000  1
  H  H2677  1  0.33960000  0.70830000  0.11690000  1
  H  H2678  1  0.61690000  0.33960000  0.20830000  1
  H  H2679  1  0.66040000  0.70830000  0.88310000  1
  H  H2680  1  0.66040000  0.29170000  0.11690000  1
  H  H2681  1  0.38310000  0.66040000  0.20830000  1
  H  H2682  1  0.38310000  0.29170000  0.16040000  1
  H  H2683  1  0.61690000  0.70830000  0.16040000  1
  H  H2684  1  0.70830000  0.33960000  0.88310000  1
  H  H2685  1  0.70830000  0.66040000  0.11690000  1
  H  H2686  1  0.33960000  0.61690000  0.79170000  1
  H  H2687  1  0.66040000  0.61690000  0.20830000  1
  C  C2688  1  0.19273000  0.12656000  0.12653000  1
  C  C2689  1  0.87344000  0.19273000  0.12653000  1
  C  C2690  1  0.80727000  0.87344000  0.12653000  1
  C  C2691  1  0.12656000  0.80727000  0.12653000  1
  C  C2692  1  0.19273000  0.87347000  0.12656000  1
  C  C2693  1  0.19273000  0.87344000  0.87347000  1
  C  C2694  1  0.19273000  0.12653000  0.87344000  1
  C  C2695  1  0.12653000  0.12656000  0.80727000  1
  C  C2696  1  0.80727000  0.12656000  0.87347000  1
  C  C2697  1  0.87347000  0.12656000  0.19273000  1
  C  C2698  1  0.12653000  0.19273000  0.12656000  1
  C  C2699  1  0.12656000  0.12653000  0.19273000  1
  C  C2700  1  0.87344000  0.87347000  0.19273000  1
  C  C2701  1  0.12653000  0.80727000  0.87344000  1
  C  C2702  1  0.87344000  0.12653000  0.80727000  1
  C  C2703  1  0.87347000  0.80727000  0.12656000  1
  C  C2704  1  0.87347000  0.19273000  0.87344000  1
  C  C2705  1  0.12656000  0.87347000  0.80727000  1
  C  C2706  1  0.12656000  0.19273000  0.87347000  1
  C  C2707  1  0.87344000  0.80727000  0.87347000  1
  C  C2708  1  0.80727000  0.12653000  0.12656000  1
  C  C2709  1  0.80727000  0.87347000  0.87344000  1
  C  C2710  1  0.12653000  0.87344000  0.19273000  1
  C  C2711  1  0.87347000  0.87344000  0.80727000  1
  C  C2712  1  0.19273000  0.62656000  0.62653000  1
  C  C2713  1  0.87344000  0.69273000  0.62653000  1
  C  C2714  1  0.80727000  0.37344000  0.62653000  1
  C  C2715  1  0.12656000  0.30727000  0.62653000  1
  C  C2716  1  0.19273000  0.37347000  0.62656000  1
  C  C2717  1  0.19273000  0.37344000  0.37347000  1
  C  C2718  1  0.19273000  0.62653000  0.37344000  1
  C  C2719  1  0.12653000  0.62656000  0.30727000  1
  C  C2720  1  0.80727000  0.62656000  0.37347000  1
  C  C2721  1  0.87347000  0.62656000  0.69273000  1
  C  C2722  1  0.12653000  0.69273000  0.62656000  1
  C  C2723  1  0.12656000  0.62653000  0.69273000  1
  C  C2724  1  0.87344000  0.37347000  0.69273000  1
  C  C2725  1  0.12653000  0.30727000  0.37344000  1
  C  C2726  1  0.87344000  0.62653000  0.30727000  1
  C  C2727  1  0.87347000  0.30727000  0.62656000  1
  C  C2728  1  0.87347000  0.69273000  0.37344000  1
  C  C2729  1  0.12656000  0.37347000  0.30727000  1
  C  C2730  1  0.12656000  0.69273000  0.37347000  1
  C  C2731  1  0.87344000  0.30727000  0.37347000  1
  C  C2732  1  0.80727000  0.62653000  0.62656000  1
  C  C2733  1  0.80727000  0.37347000  0.37344000  1
  C  C2734  1  0.12653000  0.37344000  0.69273000  1
  C  C2735  1  0.87347000  0.37344000  0.30727000  1
  C  C2736  1  0.69273000  0.12656000  0.62653000  1
  C  C2737  1  0.37344000  0.19273000  0.62653000  1
  C  C2738  1  0.30727000  0.87344000  0.62653000  1
  C  C2739  1  0.62656000  0.80727000  0.62653000  1
  C  C2740  1  0.69273000  0.87347000  0.62656000  1
  C  C2741  1  0.69273000  0.87344000  0.37347000  1
  C  C2742  1  0.69273000  0.12653000  0.37344000  1
  C  C2743  1  0.62653000  0.12656000  0.30727000  1
  C  C2744  1  0.30727000  0.12656000  0.37347000  1
  C  C2745  1  0.37347000  0.12656000  0.69273000  1
  C  C2746  1  0.62653000  0.19273000  0.62656000  1
  C  C2747  1  0.62656000  0.12653000  0.69273000  1
  C  C2748  1  0.37344000  0.87347000  0.69273000  1
  C  C2749  1  0.62653000  0.80727000  0.37344000  1
  C  C2750  1  0.37344000  0.12653000  0.30727000  1
  C  C2751  1  0.37347000  0.80727000  0.62656000  1
  C  C2752  1  0.37347000  0.19273000  0.37344000  1
  C  C2753  1  0.62656000  0.87347000  0.30727000  1
  C  C2754  1  0.62656000  0.19273000  0.37347000  1
  C  C2755  1  0.37344000  0.80727000  0.37347000  1
  C  C2756  1  0.30727000  0.12653000  0.62656000  1
  C  C2757  1  0.30727000  0.87347000  0.37344000  1
  C  C2758  1  0.62653000  0.87344000  0.69273000  1
  C  C2759  1  0.37347000  0.87344000  0.30727000  1
  C  C2760  1  0.69273000  0.62656000  0.12653000  1
  C  C2761  1  0.37344000  0.69273000  0.12653000  1
  C  C2762  1  0.30727000  0.37344000  0.12653000  1
  C  C2763  1  0.62656000  0.30727000  0.12653000  1
  C  C2764  1  0.69273000  0.37347000  0.12656000  1
  C  C2765  1  0.69273000  0.37344000  0.87347000  1
  C  C2766  1  0.69273000  0.62653000  0.87344000  1
  C  C2767  1  0.62653000  0.62656000  0.80727000  1
  C  C2768  1  0.30727000  0.62656000  0.87347000  1
  C  C2769  1  0.37347000  0.62656000  0.19273000  1
  C  C2770  1  0.62653000  0.69273000  0.12656000  1
  C  C2771  1  0.62656000  0.62653000  0.19273000  1
  C  C2772  1  0.37344000  0.37347000  0.19273000  1
  C  C2773  1  0.62653000  0.30727000  0.87344000  1
  C  C2774  1  0.37344000  0.62653000  0.80727000  1
  C  C2775  1  0.37347000  0.30727000  0.12656000  1
  C  C2776  1  0.37347000  0.69273000  0.87344000  1
  C  C2777  1  0.62656000  0.37347000  0.80727000  1
  C  C2778  1  0.62656000  0.69273000  0.87347000  1
  C  C2779  1  0.37344000  0.30727000  0.87347000  1
  C  C2780  1  0.30727000  0.62653000  0.12656000  1
  C  C2781  1  0.30727000  0.37347000  0.87344000  1
  C  C2782  1  0.62653000  0.37344000  0.19273000  1
  C  C2783  1  0.37347000  0.37344000  0.80727000  1
  C  C2784  1  0.16983000  0.13806000  0.13803000  1
  C  C2785  1  0.86194000  0.16983000  0.13803000  1
  C  C2786  1  0.83017000  0.86194000  0.13803000  1
  C  C2787  1  0.13806000  0.83017000  0.13803000  1
  C  C2788  1  0.16983000  0.86197000  0.13806000  1
  C  C2789  1  0.16983000  0.86194000  0.86197000  1
  C  C2790  1  0.16983000  0.13803000  0.86194000  1
  C  C2791  1  0.13803000  0.13806000  0.83017000  1
  C  C2792  1  0.83017000  0.13806000  0.86197000  1
  C  C2793  1  0.86197000  0.13806000  0.16983000  1
  C  C2794  1  0.13803000  0.16983000  0.13806000  1
  C  C2795  1  0.13806000  0.13803000  0.16983000  1
  C  C2796  1  0.86194000  0.86197000  0.16983000  1
  C  C2797  1  0.13803000  0.83017000  0.86194000  1
  C  C2798  1  0.86194000  0.13803000  0.83017000  1
  C  C2799  1  0.86197000  0.83017000  0.13806000  1
  C  C2800  1  0.86197000  0.16983000  0.86194000  1
  C  C2801  1  0.13806000  0.86197000  0.83017000  1
  C  C2802  1  0.13806000  0.16983000  0.86197000  1
  C  C2803  1  0.86194000  0.83017000  0.86197000  1
  C  C2804  1  0.83017000  0.13803000  0.13806000  1
  C  C2805  1  0.83017000  0.86197000  0.86194000  1
  C  C2806  1  0.13803000  0.86194000  0.16983000  1
  C  C2807  1  0.86197000  0.86194000  0.83017000  1
  C  C2808  1  0.16983000  0.63806000  0.63803000  1
  C  C2809  1  0.86194000  0.66983000  0.63803000  1
  C  C2810  1  0.83017000  0.36194000  0.63803000  1
  C  C2811  1  0.13806000  0.33017000  0.63803000  1
  C  C2812  1  0.16983000  0.36197000  0.63806000  1
  C  C2813  1  0.16983000  0.36194000  0.36197000  1
  C  C2814  1  0.16983000  0.63803000  0.36194000  1
  C  C2815  1  0.13803000  0.63806000  0.33017000  1
  C  C2816  1  0.83017000  0.63806000  0.36197000  1
  C  C2817  1  0.86197000  0.63806000  0.66983000  1
  C  C2818  1  0.13803000  0.66983000  0.63806000  1
  C  C2819  1  0.13806000  0.63803000  0.66983000  1
  C  C2820  1  0.86194000  0.36197000  0.66983000  1
  C  C2821  1  0.13803000  0.33017000  0.36194000  1
  C  C2822  1  0.86194000  0.63803000  0.33017000  1
  C  C2823  1  0.86197000  0.33017000  0.63806000  1
  C  C2824  1  0.86197000  0.66983000  0.36194000  1
  C  C2825  1  0.13806000  0.36197000  0.33017000  1
  C  C2826  1  0.13806000  0.66983000  0.36197000  1
  C  C2827  1  0.86194000  0.33017000  0.36197000  1
  C  C2828  1  0.83017000  0.63803000  0.63806000  1
  C  C2829  1  0.83017000  0.36197000  0.36194000  1
  C  C2830  1  0.13803000  0.36194000  0.66983000  1
  C  C2831  1  0.86197000  0.36194000  0.33017000  1
  C  C2832  1  0.66983000  0.13806000  0.63803000  1
  C  C2833  1  0.36194000  0.16983000  0.63803000  1
  C  C2834  1  0.33017000  0.86194000  0.63803000  1
  C  C2835  1  0.63806000  0.83017000  0.63803000  1
  C  C2836  1  0.66983000  0.86197000  0.63806000  1
  C  C2837  1  0.66983000  0.86194000  0.36197000  1
  C  C2838  1  0.66983000  0.13803000  0.36194000  1
  C  C2839  1  0.63803000  0.13806000  0.33017000  1
  C  C2840  1  0.33017000  0.13806000  0.36197000  1
  C  C2841  1  0.36197000  0.13806000  0.66983000  1
  C  C2842  1  0.63803000  0.16983000  0.63806000  1
  C  C2843  1  0.63806000  0.13803000  0.66983000  1
  C  C2844  1  0.36194000  0.86197000  0.66983000  1
  C  C2845  1  0.63803000  0.83017000  0.36194000  1
  C  C2846  1  0.36194000  0.13803000  0.33017000  1
  C  C2847  1  0.36197000  0.83017000  0.63806000  1
  C  C2848  1  0.36197000  0.16983000  0.36194000  1
  C  C2849  1  0.63806000  0.86197000  0.33017000  1
  C  C2850  1  0.63806000  0.16983000  0.36197000  1
  C  C2851  1  0.36194000  0.83017000  0.36197000  1
  C  C2852  1  0.33017000  0.13803000  0.63806000  1
  C  C2853  1  0.33017000  0.86197000  0.36194000  1
  C  C2854  1  0.63803000  0.86194000  0.66983000  1
  C  C2855  1  0.36197000  0.86194000  0.33017000  1
  C  C2856  1  0.66983000  0.63806000  0.13803000  1
  C  C2857  1  0.36194000  0.66983000  0.13803000  1
  C  C2858  1  0.33017000  0.36194000  0.13803000  1
  C  C2859  1  0.63806000  0.33017000  0.13803000  1
  C  C2860  1  0.66983000  0.36197000  0.13806000  1
  C  C2861  1  0.66983000  0.36194000  0.86197000  1
  C  C2862  1  0.66983000  0.63803000  0.86194000  1
  C  C2863  1  0.63803000  0.63806000  0.83017000  1
  C  C2864  1  0.33017000  0.63806000  0.86197000  1
  C  C2865  1  0.36197000  0.63806000  0.16983000  1
  C  C2866  1  0.63803000  0.66983000  0.13806000  1
  C  C2867  1  0.63806000  0.63803000  0.16983000  1
  C  C2868  1  0.36194000  0.36197000  0.16983000  1
  C  C2869  1  0.63803000  0.33017000  0.86194000  1
  C  C2870  1  0.36194000  0.63803000  0.83017000  1
  C  C2871  1  0.36197000  0.33017000  0.13806000  1
  C  C2872  1  0.36197000  0.66983000  0.86194000  1
  C  C2873  1  0.63806000  0.36197000  0.83017000  1
  C  C2874  1  0.63806000  0.66983000  0.86197000  1
  C  C2875  1  0.36194000  0.33017000  0.86197000  1
  C  C2876  1  0.33017000  0.63803000  0.13806000  1
  C  C2877  1  0.33017000  0.36197000  0.86194000  1
  C  C2878  1  0.63803000  0.36194000  0.16983000  1
  C  C2879  1  0.36197000  0.36194000  0.83017000  1
  C  C2880  1  0.15933000  0.12713000  0.15934000  1
  C  C2881  1  0.87287000  0.15933000  0.15934000  1
  C  C2882  1  0.84067000  0.87287000  0.15934000  1
  C  C2883  1  0.12713000  0.84067000  0.15934000  1
  C  C2884  1  0.15933000  0.84066000  0.12713000  1
  C  C2885  1  0.15933000  0.87287000  0.84066000  1
  C  C2886  1  0.15933000  0.15934000  0.87287000  1
  C  C2887  1  0.15934000  0.12713000  0.84067000  1
  C  C2888  1  0.84067000  0.12713000  0.84066000  1
  C  C2889  1  0.84066000  0.12713000  0.15933000  1
  C  C2890  1  0.15934000  0.15933000  0.12713000  1
  C  C2891  1  0.12713000  0.15934000  0.15933000  1
  C  C2892  1  0.87287000  0.84066000  0.15933000  1
  C  C2893  1  0.15934000  0.84067000  0.87287000  1
  C  C2894  1  0.87287000  0.15934000  0.84067000  1
  C  C2895  1  0.84066000  0.84067000  0.12713000  1
  C  C2896  1  0.84066000  0.15933000  0.87287000  1
  C  C2897  1  0.12713000  0.84066000  0.84067000  1
  C  C2898  1  0.12713000  0.15933000  0.84066000  1
  C  C2899  1  0.87287000  0.84067000  0.84066000  1
  C  C2900  1  0.84067000  0.15934000  0.12713000  1
  C  C2901  1  0.84067000  0.84066000  0.87287000  1
  C  C2902  1  0.15934000  0.87287000  0.15933000  1
  C  C2903  1  0.84066000  0.87287000  0.84067000  1
  C  C2904  1  0.15933000  0.62713000  0.65934000  1
  C  C2905  1  0.87287000  0.65933000  0.65934000  1
  C  C2906  1  0.84067000  0.37287000  0.65934000  1
  C  C2907  1  0.12713000  0.34067000  0.65934000  1
  C  C2908  1  0.15933000  0.34066000  0.62713000  1
  C  C2909  1  0.15933000  0.37287000  0.34066000  1
  C  C2910  1  0.15933000  0.65934000  0.37287000  1
  C  C2911  1  0.15934000  0.62713000  0.34067000  1
  C  C2912  1  0.84067000  0.62713000  0.34066000  1
  C  C2913  1  0.84066000  0.62713000  0.65933000  1
  C  C2914  1  0.15934000  0.65933000  0.62713000  1
  C  C2915  1  0.12713000  0.65934000  0.65933000  1
  C  C2916  1  0.87287000  0.34066000  0.65933000  1
  C  C2917  1  0.15934000  0.34067000  0.37287000  1
  C  C2918  1  0.87287000  0.65934000  0.34067000  1
  C  C2919  1  0.84066000  0.34067000  0.62713000  1
  C  C2920  1  0.84066000  0.65933000  0.37287000  1
  C  C2921  1  0.12713000  0.34066000  0.34067000  1
  C  C2922  1  0.12713000  0.65933000  0.34066000  1
  C  C2923  1  0.87287000  0.34067000  0.34066000  1
  C  C2924  1  0.84067000  0.65934000  0.62713000  1
  C  C2925  1  0.84067000  0.34066000  0.37287000  1
  C  C2926  1  0.15934000  0.37287000  0.65933000  1
  C  C2927  1  0.84066000  0.37287000  0.34067000  1
  C  C2928  1  0.65933000  0.12713000  0.65934000  1
  C  C2929  1  0.37287000  0.15933000  0.65934000  1
  C  C2930  1  0.34067000  0.87287000  0.65934000  1
  C  C2931  1  0.62713000  0.84067000  0.65934000  1
  C  C2932  1  0.65933000  0.84066000  0.62713000  1
  C  C2933  1  0.65933000  0.87287000  0.34066000  1
  C  C2934  1  0.65933000  0.15934000  0.37287000  1
  C  C2935  1  0.65934000  0.12713000  0.34067000  1
  C  C2936  1  0.34067000  0.12713000  0.34066000  1
  C  C2937  1  0.34066000  0.12713000  0.65933000  1
  C  C2938  1  0.65934000  0.15933000  0.62713000  1
  C  C2939  1  0.62713000  0.15934000  0.65933000  1
  C  C2940  1  0.37287000  0.84066000  0.65933000  1
  C  C2941  1  0.65934000  0.84067000  0.37287000  1
  C  C2942  1  0.37287000  0.15934000  0.34067000  1
  C  C2943  1  0.34066000  0.84067000  0.62713000  1
  C  C2944  1  0.34066000  0.15933000  0.37287000  1
  C  C2945  1  0.62713000  0.84066000  0.34067000  1
  C  C2946  1  0.62713000  0.15933000  0.34066000  1
  C  C2947  1  0.37287000  0.84067000  0.34066000  1
  C  C2948  1  0.34067000  0.15934000  0.62713000  1
  C  C2949  1  0.34067000  0.84066000  0.37287000  1
  C  C2950  1  0.65934000  0.87287000  0.65933000  1
  C  C2951  1  0.34066000  0.87287000  0.34067000  1
  C  C2952  1  0.65933000  0.62713000  0.15934000  1
  C  C2953  1  0.37287000  0.65933000  0.15934000  1
  C  C2954  1  0.34067000  0.37287000  0.15934000  1
  C  C2955  1  0.62713000  0.34067000  0.15934000  1
  C  C2956  1  0.65933000  0.34066000  0.12713000  1
  C  C2957  1  0.65933000  0.37287000  0.84066000  1
  C  C2958  1  0.65933000  0.65934000  0.87287000  1
  C  C2959  1  0.65934000  0.62713000  0.84067000  1
  C  C2960  1  0.34067000  0.62713000  0.84066000  1
  C  C2961  1  0.34066000  0.62713000  0.15933000  1
  C  C2962  1  0.65934000  0.65933000  0.12713000  1
  C  C2963  1  0.62713000  0.65934000  0.15933000  1
  C  C2964  1  0.37287000  0.34066000  0.15933000  1
  C  C2965  1  0.65934000  0.34067000  0.87287000  1
  C  C2966  1  0.37287000  0.65934000  0.84067000  1
  C  C2967  1  0.34066000  0.34067000  0.12713000  1
  C  C2968  1  0.34066000  0.65933000  0.87287000  1
  C  C2969  1  0.62713000  0.34066000  0.84067000  1
  C  C2970  1  0.62713000  0.65933000  0.84066000  1
  C  C2971  1  0.37287000  0.34067000  0.84066000  1
  C  C2972  1  0.34067000  0.65934000  0.12713000  1
  C  C2973  1  0.34067000  0.34066000  0.87287000  1
  C  C2974  1  0.65934000  0.37287000  0.15933000  1
  C  C2975  1  0.34066000  0.37287000  0.84067000  1
  H  H2976  1  0.16670000  0.11240000  0.16670000  1
  H  H2977  1  0.88760000  0.16670000  0.16670000  1
  H  H2978  1  0.83330000  0.88760000  0.16670000  1
  H  H2979  1  0.11240000  0.83330000  0.16670000  1
  H  H2980  1  0.16670000  0.83330000  0.11240000  1
  H  H2981  1  0.16670000  0.88760000  0.83330000  1
  H  H2982  1  0.16670000  0.16670000  0.88760000  1
  H  H2983  1  0.16670000  0.11240000  0.83330000  1
  H  H2984  1  0.83330000  0.11240000  0.83330000  1
  H  H2985  1  0.83330000  0.11240000  0.16670000  1
  H  H2986  1  0.16670000  0.16670000  0.11240000  1
  H  H2987  1  0.11240000  0.16670000  0.16670000  1
  H  H2988  1  0.88760000  0.83330000  0.16670000  1
  H  H2989  1  0.16670000  0.83330000  0.88760000  1
  H  H2990  1  0.88760000  0.16670000  0.83330000  1
  H  H2991  1  0.83330000  0.83330000  0.11240000  1
  H  H2992  1  0.83330000  0.16670000  0.88760000  1
  H  H2993  1  0.11240000  0.83330000  0.83330000  1
  H  H2994  1  0.11240000  0.16670000  0.83330000  1
  H  H2995  1  0.88760000  0.83330000  0.83330000  1
  H  H2996  1  0.83330000  0.16670000  0.11240000  1
  H  H2997  1  0.83330000  0.83330000  0.88760000  1
  H  H2998  1  0.16670000  0.88760000  0.16670000  1
  H  H2999  1  0.83330000  0.88760000  0.83330000  1
  H  H3000  1  0.16670000  0.61240000  0.66670000  1
  H  H3001  1  0.88760000  0.66670000  0.66670000  1
  H  H3002  1  0.83330000  0.38760000  0.66670000  1
  H  H3003  1  0.11240000  0.33330000  0.66670000  1
  H  H3004  1  0.16670000  0.33330000  0.61240000  1
  H  H3005  1  0.16670000  0.38760000  0.33330000  1
  H  H3006  1  0.16670000  0.66670000  0.38760000  1
  H  H3007  1  0.16670000  0.61240000  0.33330000  1
  H  H3008  1  0.83330000  0.61240000  0.33330000  1
  H  H3009  1  0.83330000  0.61240000  0.66670000  1
  H  H3010  1  0.16670000  0.66670000  0.61240000  1
  H  H3011  1  0.11240000  0.66670000  0.66670000  1
  H  H3012  1  0.88760000  0.33330000  0.66670000  1
  H  H3013  1  0.16670000  0.33330000  0.38760000  1
  H  H3014  1  0.88760000  0.66670000  0.33330000  1
  H  H3015  1  0.83330000  0.33330000  0.61240000  1
  H  H3016  1  0.83330000  0.66670000  0.38760000  1
  H  H3017  1  0.11240000  0.33330000  0.33330000  1
  H  H3018  1  0.11240000  0.66670000  0.33330000  1
  H  H3019  1  0.88760000  0.33330000  0.33330000  1
  H  H3020  1  0.83330000  0.66670000  0.61240000  1
  H  H3021  1  0.83330000  0.33330000  0.38760000  1
  H  H3022  1  0.16670000  0.38760000  0.66670000  1
  H  H3023  1  0.83330000  0.38760000  0.33330000  1
  H  H3024  1  0.66670000  0.11240000  0.66670000  1
  H  H3025  1  0.38760000  0.16670000  0.66670000  1
  H  H3026  1  0.33330000  0.88760000  0.66670000  1
  H  H3027  1  0.61240000  0.83330000  0.66670000  1
  H  H3028  1  0.66670000  0.83330000  0.61240000  1
  H  H3029  1  0.66670000  0.88760000  0.33330000  1
  H  H3030  1  0.66670000  0.16670000  0.38760000  1
  H  H3031  1  0.66670000  0.11240000  0.33330000  1
  H  H3032  1  0.33330000  0.11240000  0.33330000  1
  H  H3033  1  0.33330000  0.11240000  0.66670000  1
  H  H3034  1  0.66670000  0.16670000  0.61240000  1
  H  H3035  1  0.61240000  0.16670000  0.66670000  1
  H  H3036  1  0.38760000  0.83330000  0.66670000  1
  H  H3037  1  0.66670000  0.83330000  0.38760000  1
  H  H3038  1  0.38760000  0.16670000  0.33330000  1
  H  H3039  1  0.33330000  0.83330000  0.61240000  1
  H  H3040  1  0.33330000  0.16670000  0.38760000  1
  H  H3041  1  0.61240000  0.83330000  0.33330000  1
  H  H3042  1  0.61240000  0.16670000  0.33330000  1
  H  H3043  1  0.38760000  0.83330000  0.33330000  1
  H  H3044  1  0.33330000  0.16670000  0.61240000  1
  H  H3045  1  0.33330000  0.83330000  0.38760000  1
  H  H3046  1  0.66670000  0.88760000  0.66670000  1
  H  H3047  1  0.33330000  0.88760000  0.33330000  1
  H  H3048  1  0.66670000  0.61240000  0.16670000  1
  H  H3049  1  0.38760000  0.66670000  0.16670000  1
  H  H3050  1  0.33330000  0.38760000  0.16670000  1
  H  H3051  1  0.61240000  0.33330000  0.16670000  1
  H  H3052  1  0.66670000  0.33330000  0.11240000  1
  H  H3053  1  0.66670000  0.38760000  0.83330000  1
  H  H3054  1  0.66670000  0.66670000  0.88760000  1
  H  H3055  1  0.66670000  0.61240000  0.83330000  1
  H  H3056  1  0.33330000  0.61240000  0.83330000  1
  H  H3057  1  0.33330000  0.61240000  0.16670000  1
  H  H3058  1  0.66670000  0.66670000  0.11240000  1
  H  H3059  1  0.61240000  0.66670000  0.16670000  1
  H  H3060  1  0.38760000  0.33330000  0.16670000  1
  H  H3061  1  0.66670000  0.33330000  0.88760000  1
  H  H3062  1  0.38760000  0.66670000  0.83330000  1
  H  H3063  1  0.33330000  0.33330000  0.11240000  1
  H  H3064  1  0.33330000  0.66670000  0.88760000  1
  H  H3065  1  0.61240000  0.33330000  0.83330000  1
  H  H3066  1  0.61240000  0.66670000  0.83330000  1
  H  H3067  1  0.38760000  0.33330000  0.83330000  1
  H  H3068  1  0.33330000  0.66670000  0.11240000  1
  H  H3069  1  0.33330000  0.33330000  0.88760000  1
  H  H3070  1  0.66670000  0.38760000  0.16670000  1
  H  H3071  1  0.33330000  0.38760000  0.83330000  1
