# generated using pymatgen
data_Eu2H48(C26O5)3
_symmetry_space_group_name_H-M   'P 1'
_cell_length_a   79.58241200
_cell_length_b   79.58241200
_cell_length_c   10.33003000
_cell_angle_alpha   90.00000000
_cell_angle_beta   90.00000000
_cell_angle_gamma   120.00000000
_symmetry_Int_Tables_number   1
_chemical_formula_structural   Eu2H48(C26O5)3
_chemical_formula_sum   'Eu36 H864 C1404 O270'
_cell_volume   56658.67445505
_cell_formula_units_Z   18
loop_
 _symmetry_equiv_pos_site_id
 _symmetry_equiv_pos_as_xyz
  1  'x, y, z'
loop_
 _atom_site_type_symbol
 _atom_site_label
 _atom_site_symmetry_multiplicity
 _atom_site_fract_x
 _atom_site_fract_y
 _atom_site_fract_z
 _atom_site_occupancy
  Eu  Eu0  1  0.19772300  0.23895200  0.43219400  1
  Eu  Eu1  1  0.76104800  0.95877100  0.43219400  1
  Eu  Eu2  1  0.04122900  0.80227700  0.43219400  1
  Eu  Eu3  1  0.86438967  0.57228533  0.76552733  1
  Eu  Eu4  1  0.42771467  0.29210433  0.76552733  1
  Eu  Eu5  1  0.70789567  0.13561033  0.76552733  1
  Eu  Eu6  1  0.53105633  0.90561867  0.09886067  1
  Eu  Eu7  1  0.09438133  0.62543767  0.09886067  1
  Eu  Eu8  1  0.37456233  0.46894367  0.09886067  1
  Eu  Eu9  1  0.80227700  0.76104800  0.56780600  1
  Eu  Eu10  1  0.23895200  0.04122900  0.56780600  1
  Eu  Eu11  1  0.95877100  0.19772300  0.56780600  1
  Eu  Eu12  1  0.13561033  0.42771467  0.23447267  1
  Eu  Eu13  1  0.57228533  0.70789567  0.23447267  1
  Eu  Eu14  1  0.29210433  0.86438967  0.23447267  1
  Eu  Eu15  1  0.46894367  0.09438133  0.90113933  1
  Eu  Eu16  1  0.90561867  0.37456233  0.90113933  1
  Eu  Eu17  1  0.62543767  0.53105633  0.90113933  1
  Eu  Eu18  1  0.42877300  0.26965200  0.33829400  1
  Eu  Eu19  1  0.73034800  0.15912100  0.33829400  1
  Eu  Eu20  1  0.84087900  0.57122700  0.33829400  1
  Eu  Eu21  1  0.09543967  0.60298533  0.67162733  1
  Eu  Eu22  1  0.39701467  0.49245433  0.67162733  1
  Eu  Eu23  1  0.50754567  0.90456033  0.67162733  1
  Eu  Eu24  1  0.76210633  0.93631867  0.00496067  1
  Eu  Eu25  1  0.06368133  0.82578767  0.00496067  1
  Eu  Eu26  1  0.17421233  0.23789367  0.00496067  1
  Eu  Eu27  1  0.57122700  0.73034800  0.66170600  1
  Eu  Eu28  1  0.26965200  0.84087900  0.66170600  1
  Eu  Eu29  1  0.15912100  0.42877300  0.66170600  1
  Eu  Eu30  1  0.90456033  0.39701467  0.32837267  1
  Eu  Eu31  1  0.60298533  0.50754567  0.32837267  1
  Eu  Eu32  1  0.49245433  0.09543967  0.32837267  1
  Eu  Eu33  1  0.23789367  0.06368133  0.00000000  1
  Eu  Eu34  1  0.93631867  0.17421233  0.00000000  1
  Eu  Eu35  1  0.82578767  0.76210633  0.00000000  1
  O  O36  1  0.17385110  0.24689900  0.39996000  1
  O  O37  1  0.75310100  0.92695210  0.39996000  1
  O  O38  1  0.07304790  0.82614890  0.39996000  1
  O  O39  1  0.84051777  0.58023233  0.73329333  1
  O  O40  1  0.41976767  0.26028543  0.73329333  1
  O  O41  1  0.73971457  0.15948223  0.73329333  1
  O  O42  1  0.50718443  0.91356567  0.06662667  1
  O  O43  1  0.08643433  0.59361877  0.06662667  1
  O  O44  1  0.40638123  0.49281557  0.06662667  1
  O  O45  1  0.82614890  0.75310100  0.60004000  1
  O  O46  1  0.24689900  0.07304790  0.60004000  1
  O  O47  1  0.92695210  0.17385110  0.60004000  1
  O  O48  1  0.15948223  0.41976767  0.26670667  1
  O  O49  1  0.58023233  0.73971457  0.26670667  1
  O  O50  1  0.26028543  0.84051777  0.26670667  1
  O  O51  1  0.49281557  0.08643433  0.93337333  1
  O  O52  1  0.91356567  0.40638123  0.93337333  1
  O  O53  1  0.59361877  0.50718443  0.93337333  1
  O  O54  1  0.16027100  0.23584800  0.20896000  1
  O  O55  1  0.76415200  0.92442300  0.20896000  1
  O  O56  1  0.07557700  0.83972900  0.20896000  1
  O  O57  1  0.82693767  0.56918133  0.54229333  1
  O  O58  1  0.43081867  0.25775633  0.54229333  1
  O  O59  1  0.74224367  0.17306233  0.54229333  1
  O  O60  1  0.49360433  0.90251467  0.87562667  1
  O  O61  1  0.09748533  0.59108967  0.87562667  1
  O  O62  1  0.40891033  0.50639567  0.87562667  1
  O  O63  1  0.83972900  0.76415200  0.79104000  1
  O  O64  1  0.23584800  0.07557700  0.79104000  1
  O  O65  1  0.92442300  0.16027100  0.79104000  1
  O  O66  1  0.17306233  0.43081867  0.45770667  1
  O  O67  1  0.56918133  0.74224367  0.45770667  1
  O  O68  1  0.25775633  0.82693767  0.45770667  1
  O  O69  1  0.50639567  0.09748533  0.12437333  1
  O  O70  1  0.90251467  0.40891033  0.12437333  1
  O  O71  1  0.59108967  0.49360433  0.12437333  1
  O  O72  1  0.99072900  0.21176700  0.46084000  1
  O  O73  1  0.78823300  0.77896200  0.46084000  1
  O  O74  1  0.22103800  0.00927100  0.46084000  1
  O  O75  1  0.65739567  0.54510033  0.79417333  1
  O  O76  1  0.45489967  0.11229533  0.79417333  1
  O  O77  1  0.88770467  0.34260433  0.79417333  1
  O  O78  1  0.32406233  0.87843367  0.12750667  1
  O  O79  1  0.12156633  0.44562867  0.12750667  1
  O  O80  1  0.55437133  0.67593767  0.12750667  1
  O  O81  1  0.00927100  0.78823300  0.53916000  1
  O  O82  1  0.21176700  0.22103800  0.53916000  1
  O  O83  1  0.77896200  0.99072900  0.53916000  1
  O  O84  1  0.34260433  0.45489967  0.20582667  1
  O  O85  1  0.54510033  0.88770467  0.20582667  1
  O  O86  1  0.11229533  0.65739567  0.20582667  1
  O  O87  1  0.67593767  0.12156633  0.87249333  1
  O  O88  1  0.87843367  0.55437133  0.87249333  1
  O  O89  1  0.44562867  0.32406233  0.87249333  1
  O  O90  1  0.98256200  0.23242600  0.54194000  1
  O  O91  1  0.76757400  0.75013600  0.54194000  1
  O  O92  1  0.24986400  0.01743800  0.54194000  1
  O  O93  1  0.64922867  0.56575933  0.87527333  1
  O  O94  1  0.43424067  0.08346933  0.87527333  1
  O  O95  1  0.91653067  0.35077133  0.87527333  1
  O  O96  1  0.31589533  0.89909267  0.20860667  1
  O  O97  1  0.10090733  0.41680267  0.20860667  1
  O  O98  1  0.58319733  0.68410467  0.20860667  1
  O  O99  1  0.01743800  0.76757400  0.45806000  1
  O  O100  1  0.23242600  0.24986400  0.45806000  1
  O  O101  1  0.75013600  0.98256200  0.45806000  1
  O  O102  1  0.35077133  0.43424067  0.12472667  1
  O  O103  1  0.56575933  0.91653067  0.12472667  1
  O  O104  1  0.08346933  0.64922867  0.12472667  1
  O  O105  1  0.68410467  0.10090733  0.79139333  1
  O  O106  1  0.89909267  0.58319733  0.79139333  1
  O  O107  1  0.41680267  0.31589533  0.79139333  1
  O  O108  1  0.14044800  0.40804600  0.83916000  1
  O  O109  1  0.59195400  0.73240200  0.83916000  1
  O  O110  1  0.26759800  0.85955200  0.83916000  1
  O  O111  1  0.80711467  0.74137933  0.17249333  1
  O  O112  1  0.25862067  0.06573533  0.17249333  1
  O  O113  1  0.93426467  0.19288533  0.17249333  1
  O  O114  1  0.47378133  0.07471267  0.50582667  1
  O  O115  1  0.92528733  0.39906867  0.50582667  1
  O  O116  1  0.60093133  0.52621867  0.50582667  1
  O  O117  1  0.85955200  0.59195400  0.16084000  1
  O  O118  1  0.40804600  0.26759800  0.16084000  1
  O  O119  1  0.73240200  0.14044800  0.16084000  1
  O  O120  1  0.19288533  0.25862067  0.82750667  1
  O  O121  1  0.74137933  0.93426467  0.82750667  1
  O  O122  1  0.06573533  0.80711467  0.82750667  1
  O  O123  1  0.52621867  0.92528733  0.49417333  1
  O  O124  1  0.07471267  0.60093133  0.49417333  1
  O  O125  1  0.39906867  0.47378133  0.49417333  1
  O  O126  1  0.13333900  0.41396700  0.03234000  1
  O  O127  1  0.58603300  0.71937200  0.03234000  1
  O  O128  1  0.28062800  0.86666100  0.03234000  1
  O  O129  1  0.80000567  0.74730033  0.36567333  1
  O  O130  1  0.25269967  0.05270533  0.36567333  1
  O  O131  1  0.94729467  0.19999433  0.36567333  1
  O  O132  1  0.46667233  0.08063367  0.69900667  1
  O  O133  1  0.91936633  0.38603867  0.69900667  1
  O  O134  1  0.61396133  0.53332767  0.69900667  1
  O  O135  1  0.86666100  0.58603300  0.96766000  1
  O  O136  1  0.41396700  0.28062800  0.96766000  1
  O  O137  1  0.71937200  0.13333900  0.96766000  1
  O  O138  1  0.19999433  0.25269967  0.63432667  1
  O  O139  1  0.74730033  0.94729467  0.63432667  1
  O  O140  1  0.05270533  0.80000567  0.63432667  1
  O  O141  1  0.53332767  0.91936633  0.30099333  1
  O  O142  1  0.08063367  0.61396133  0.30099333  1
  O  O143  1  0.38603867  0.46667233  0.30099333  1
  O  O144  1  0.19283900  0.21948700  0.25896000  1
  O  O145  1  0.78051300  0.97335200  0.25896000  1
  O  O146  1  0.02664800  0.80716100  0.25896000  1
  O  O147  1  0.85950567  0.55282033  0.59229333  1
  O  O148  1  0.44717967  0.30668533  0.59229333  1
  O  O149  1  0.69331467  0.14049433  0.59229333  1
  O  O150  1  0.52617233  0.88615367  0.92562667  1
  O  O151  1  0.11384633  0.64001867  0.92562667  1
  O  O152  1  0.35998133  0.47382767  0.92562667  1
  O  O153  1  0.80716100  0.78051300  0.74104000  1
  O  O154  1  0.21948700  0.02664800  0.74104000  1
  O  O155  1  0.97335200  0.19283900  0.74104000  1
  O  O156  1  0.14049433  0.44717967  0.40770667  1
  O  O157  1  0.55282033  0.69331467  0.40770667  1
  O  O158  1  0.30668533  0.85950567  0.40770667  1
  O  O159  1  0.47382767  0.11384633  0.07437333  1
  O  O160  1  0.88615367  0.35998133  0.07437333  1
  O  O161  1  0.64001867  0.52617233  0.07437333  1
  O  O162  1  0.18946110  0.21927800  0.04485000  1
  O  O163  1  0.78072200  0.97018310  0.04485000  1
  O  O164  1  0.02981690  0.81053890  0.04485000  1
  O  O165  1  0.85612777  0.55261133  0.37818333  1
  O  O166  1  0.44738867  0.30351643  0.37818333  1
  O  O167  1  0.69648357  0.14387223  0.37818333  1
  O  O168  1  0.52279443  0.88594467  0.71151667  1
  O  O169  1  0.11405533  0.63684977  0.71151667  1
  O  O170  1  0.36315023  0.47720557  0.71151667  1
  O  O171  1  0.81053890  0.78072200  0.95515000  1
  O  O172  1  0.21927800  0.02981690  0.95515000  1
  O  O173  1  0.97018310  0.18946110  0.95515000  1
  O  O174  1  0.14387223  0.44738867  0.62181667  1
  O  O175  1  0.55261133  0.69648357  0.62181667  1
  O  O176  1  0.30351643  0.85612777  0.62181667  1
  O  O177  1  0.47720557  0.11405533  0.28848333  1
  O  O178  1  0.88594467  0.36315023  0.28848333  1
  O  O179  1  0.63684977  0.52279443  0.28848333  1
  O  O180  1  0.24190800  0.09389600  0.08004000  1
  O  O181  1  0.90610400  0.14801200  0.08004000  1
  O  O182  1  0.85198800  0.75809200  0.08004000  1
  O  O183  1  0.90857467  0.42722933  0.41337333  1
  O  O184  1  0.57277067  0.48134533  0.41337333  1
  O  O185  1  0.51865467  0.09142533  0.41337333  1
  O  O186  1  0.57524133  0.76056267  0.74670667  1
  O  O187  1  0.23943733  0.81467867  0.74670667  1
  O  O188  1  0.18532133  0.42475867  0.74670667  1
  O  O189  1  0.75809200  0.90610400  0.91996000  1
  O  O190  1  0.09389600  0.85198800  0.91996000  1
  O  O191  1  0.14801200  0.24190800  0.91996000  1
  O  O192  1  0.09142533  0.57277067  0.58662667  1
  O  O193  1  0.42722933  0.51865467  0.58662667  1
  O  O194  1  0.48134533  0.90857467  0.58662667  1
  O  O195  1  0.42475867  0.23943733  0.25329333  1
  O  O196  1  0.76056267  0.18532133  0.25329333  1
  O  O197  1  0.81467867  0.57524133  0.25329333  1
  O  O198  1  0.26761700  0.09638500  0.97906000  1
  O  O199  1  0.90361500  0.17123200  0.97906000  1
  O  O200  1  0.82876800  0.73238300  0.97906000  1
  O  O201  1  0.93428367  0.42971833  0.31239333  1
  O  O202  1  0.57028167  0.50456533  0.31239333  1
  O  O203  1  0.49543467  0.06571633  0.31239333  1
  O  O204  1  0.60095033  0.76305167  0.64572667  1
  O  O205  1  0.23694833  0.83789867  0.64572667  1
  O  O206  1  0.16210133  0.39904967  0.64572667  1
  O  O207  1  0.73238300  0.90361500  0.02094000  1
  O  O208  1  0.09638500  0.82876800  0.02094000  1
  O  O209  1  0.17123200  0.26761700  0.02094000  1
  O  O210  1  0.06571633  0.57028167  0.68760667  1
  O  O211  1  0.42971833  0.49543467  0.68760667  1
  O  O212  1  0.50456533  0.93428367  0.68760667  1
  O  O213  1  0.39904967  0.23694833  0.35427333  1
  O  O214  1  0.76305167  0.16210133  0.35427333  1
  O  O215  1  0.83789867  0.60095033  0.35427333  1
  O  O216  1  0.39899800  0.28138500  0.63964000  1
  O  O217  1  0.71861500  0.11761300  0.63964000  1
  O  O218  1  0.88238700  0.60100200  0.63964000  1
  O  O219  1  0.06566467  0.61471833  0.97297333  1
  O  O220  1  0.38528167  0.45094633  0.97297333  1
  O  O221  1  0.54905367  0.93433533  0.97297333  1
  O  O222  1  0.73233133  0.94805167  0.30630667  1
  O  O223  1  0.05194833  0.78427967  0.30630667  1
  O  O224  1  0.21572033  0.26766867  0.30630667  1
  O  O225  1  0.60100200  0.71861500  0.36036000  1
  O  O226  1  0.28138500  0.88238700  0.36036000  1
  O  O227  1  0.11761300  0.39899800  0.36036000  1
  O  O228  1  0.93433533  0.38528167  0.02702667  1
  O  O229  1  0.61471833  0.54905367  0.02702667  1
  O  O230  1  0.45094633  0.06566467  0.02702667  1
  O  O231  1  0.26766867  0.05194833  0.69369333  1
  O  O232  1  0.94805167  0.21572033  0.69369333  1
  O  O233  1  0.78427967  0.73233133  0.69369333  1
  O  O234  1  0.40820800  0.27668600  0.44794000  1
  O  O235  1  0.72331400  0.13152200  0.44794000  1
  O  O236  1  0.86847800  0.59179200  0.44794000  1
  O  O237  1  0.07487467  0.61001933  0.78127333  1
  O  O238  1  0.38998067  0.46485533  0.78127333  1
  O  O239  1  0.53514467  0.92512533  0.78127333  1
  O  O240  1  0.74154133  0.94335267  0.11460667  1
  O  O241  1  0.05664733  0.79818867  0.11460667  1
  O  O242  1  0.20181133  0.25845867  0.11460667  1
  O  O243  1  0.59179200  0.72331400  0.55206000  1
  O  O244  1  0.27668600  0.86847800  0.55206000  1
  O  O245  1  0.13152200  0.40820800  0.55206000  1
  O  O246  1  0.92512533  0.38998067  0.21872667  1
  O  O247  1  0.61001933  0.53514467  0.21872667  1
  O  O248  1  0.46485533  0.07487467  0.21872667  1
  O  O249  1  0.25845867  0.05664733  0.88539333  1
  O  O250  1  0.94335267  0.20181133  0.88539333  1
  O  O251  1  0.79818867  0.74154133  0.88539333  1
  C  C414  1  0.16217160  0.24487120  0.31349000  1
  C  C415  1  0.75512880  0.91730040  0.31349000  1
  C  C416  1  0.08269960  0.83782840  0.31349000  1
  C  C417  1  0.82883827  0.57820453  0.64682333  1
  C  C418  1  0.42179547  0.25063373  0.64682333  1
  C  C419  1  0.74936627  0.17116173  0.64682333  1
  C  C420  1  0.49550493  0.91153787  0.98015667  1
  C  C421  1  0.08846213  0.58396707  0.98015667  1
  C  C422  1  0.41603293  0.50449507  0.98015667  1
  C  C423  1  0.83782840  0.75512880  0.68651000  1
  C  C424  1  0.24487120  0.08269960  0.68651000  1
  C  C425  1  0.91730040  0.16217160  0.68651000  1
  C  C426  1  0.17116173  0.42179547  0.35317667  1
  C  C427  1  0.57820453  0.74936627  0.35317667  1
  C  C428  1  0.25063373  0.82883827  0.35317667  1
  C  C429  1  0.50449507  0.08846213  0.01984333  1
  C  C430  1  0.91153787  0.41603293  0.01984333  1
  C  C431  1  0.58396707  0.49550493  0.01984333  1
  C  C432  1  0.14875130  0.25291100  0.33947000  1
  C  C433  1  0.74708900  0.89584030  0.33947000  1
  C  C434  1  0.10415970  0.85124870  0.33947000  1
  C  C435  1  0.81541797  0.58624433  0.67280333  1
  C  C436  1  0.41375567  0.22917363  0.67280333  1
  C  C437  1  0.77082637  0.18458203  0.67280333  1
  C  C438  1  0.48208463  0.91957767  0.00613667  1
  C  C439  1  0.08042233  0.56250697  0.00613667  1
  C  C440  1  0.43749303  0.51791537  0.00613667  1
  C  C441  1  0.85124870  0.74708900  0.66053000  1
  C  C442  1  0.25291100  0.10415970  0.66053000  1
  C  C443  1  0.89584030  0.14875130  0.66053000  1
  C  C444  1  0.18458203  0.41375567  0.32719667  1
  C  C445  1  0.58624433  0.77082637  0.32719667  1
  C  C446  1  0.22917363  0.81541797  0.32719667  1
  C  C447  1  0.51791537  0.08042233  0.99386333  1
  C  C448  1  0.91957767  0.43749303  0.99386333  1
  C  C449  1  0.56250697  0.48208463  0.99386333  1
  C  C450  1  0.13558120  0.25094900  0.24596000  1
  C  C451  1  0.74905100  0.88463220  0.24596000  1
  C  C452  1  0.11536780  0.86441880  0.24596000  1
  C  C453  1  0.80224787  0.58428233  0.57929333  1
  C  C454  1  0.41571767  0.21796553  0.57929333  1
  C  C455  1  0.78203447  0.19775213  0.57929333  1
  C  C456  1  0.46891453  0.91761567  0.91262667  1
  C  C457  1  0.08238433  0.55129887  0.91262667  1
  C  C458  1  0.44870113  0.53108547  0.91262667  1
  C  C459  1  0.86441880  0.74905100  0.75404000  1
  C  C460  1  0.25094900  0.11536780  0.75404000  1
  C  C461  1  0.88463220  0.13558120  0.75404000  1
  C  C462  1  0.19775213  0.41571767  0.42070667  1
  C  C463  1  0.58428233  0.78203447  0.42070667  1
  C  C464  1  0.21796553  0.80224787  0.42070667  1
  C  C465  1  0.53108547  0.08238433  0.08737333  1
  C  C466  1  0.91761567  0.44870113  0.08737333  1
  C  C467  1  0.55129887  0.46891453  0.08737333  1
  H  H468  1  0.13482000  0.24449000  0.16685000  1
  H  H469  1  0.75551000  0.89033000  0.16685000  1
  H  H470  1  0.10967000  0.86518000  0.16685000  1
  H  H471  1  0.80148667  0.57782333  0.50018333  1
  H  H472  1  0.42217667  0.22366333  0.50018333  1
  H  H473  1  0.77633667  0.19851333  0.50018333  1
  H  H474  1  0.46815333  0.91115667  0.83351667  1
  H  H475  1  0.08884333  0.55699667  0.83351667  1
  H  H476  1  0.44300333  0.53184667  0.83351667  1
  H  H477  1  0.86518000  0.75551000  0.83315000  1
  H  H478  1  0.24449000  0.10967000  0.83315000  1
  H  H479  1  0.89033000  0.13482000  0.83315000  1
  H  H480  1  0.19851333  0.42217667  0.49981667  1
  H  H481  1  0.57782333  0.77633667  0.49981667  1
  H  H482  1  0.22366333  0.80148667  0.49981667  1
  H  H483  1  0.53184667  0.08884333  0.16648333  1
  H  H484  1  0.91115667  0.44300333  0.16648333  1
  H  H485  1  0.55699667  0.46815333  0.16648333  1
  C  C486  1  0.12345130  0.25845100  0.26816000  1
  C  C487  1  0.74154900  0.86500030  0.26816000  1
  C  C488  1  0.13499970  0.87654870  0.26816000  1
  C  C489  1  0.79011797  0.59178433  0.60149333  1
  C  C490  1  0.40821567  0.19833363  0.60149333  1
  C  C491  1  0.80166637  0.20988203  0.60149333  1
  C  C492  1  0.45678463  0.92511767  0.93482667  1
  C  C493  1  0.07488233  0.53166697  0.93482667  1
  C  C494  1  0.46833303  0.54321537  0.93482667  1
  C  C495  1  0.87654870  0.74154900  0.73184000  1
  C  C496  1  0.25845100  0.13499970  0.73184000  1
  C  C497  1  0.86500030  0.12345130  0.73184000  1
  C  C498  1  0.20988203  0.40821567  0.39850667  1
  C  C499  1  0.59178433  0.80166637  0.39850667  1
  C  C500  1  0.19833363  0.79011797  0.39850667  1
  C  C501  1  0.54321537  0.07488233  0.06517333  1
  C  C502  1  0.92511767  0.46833303  0.06517333  1
  C  C503  1  0.53166697  0.45678463  0.06517333  1
  H  H504  1  0.11455000  0.25730000  0.20263000  1
  H  H505  1  0.74270000  0.85725000  0.20263000  1
  H  H506  1  0.14275000  0.88545000  0.20263000  1
  H  H507  1  0.78121667  0.59063333  0.53596333  1
  H  H508  1  0.40936667  0.19058333  0.53596333  1
  H  H509  1  0.80941667  0.21878333  0.53596333  1
  H  H510  1  0.44788333  0.92396667  0.86929667  1
  H  H511  1  0.07603333  0.52391667  0.86929667  1
  H  H512  1  0.47608333  0.55211667  0.86929667  1
  H  H513  1  0.88545000  0.74270000  0.79737000  1
  H  H514  1  0.25730000  0.14275000  0.79737000  1
  H  H515  1  0.85725000  0.11455000  0.79737000  1
  H  H516  1  0.21878333  0.40936667  0.46403667  1
  H  H517  1  0.59063333  0.80941667  0.46403667  1
  H  H518  1  0.19058333  0.78121667  0.46403667  1
  H  H519  1  0.55211667  0.07603333  0.13070333  1
  H  H520  1  0.92396667  0.47608333  0.13070333  1
  H  H521  1  0.52391667  0.44788333  0.13070333  1
  C  C522  1  0.12401120  0.26769900  0.38445000  1
  C  C523  1  0.73230100  0.85631220  0.38445000  1
  C  C524  1  0.14368780  0.87598880  0.38445000  1
  C  C525  1  0.79067787  0.60103233  0.71778333  1
  C  C526  1  0.39896767  0.18964553  0.71778333  1
  C  C527  1  0.81035447  0.20932213  0.71778333  1
  C  C528  1  0.45734453  0.93436567  0.05111667  1
  C  C529  1  0.06563433  0.52297887  0.05111667  1
  C  C530  1  0.47702113  0.54265547  0.05111667  1
  C  C531  1  0.87598880  0.73230100  0.61555000  1
  C  C532  1  0.26769900  0.14368780  0.61555000  1
  C  C533  1  0.85631220  0.12401120  0.61555000  1
  C  C534  1  0.20932213  0.39896767  0.28221667  1
  C  C535  1  0.60103233  0.81035447  0.28221667  1
  C  C536  1  0.18964553  0.79067787  0.28221667  1
  C  C537  1  0.54265547  0.06563433  0.94888333  1
  C  C538  1  0.93436567  0.47702113  0.94888333  1
  C  C539  1  0.52297887  0.45734453  0.94888333  1
  C  C540  1  0.13779130  0.26982100  0.47496000  1
  C  C541  1  0.73017900  0.86797030  0.47496000  1
  C  C542  1  0.13202970  0.86220870  0.47496000  1
  C  C543  1  0.80445797  0.60315433  0.80829333  1
  C  C544  1  0.39684567  0.20130363  0.80829333  1
  C  C545  1  0.79869637  0.19554203  0.80829333  1
  C  C546  1  0.47112463  0.93648767  0.14162667  1
  C  C547  1  0.06351233  0.53463697  0.14162667  1
  C  C548  1  0.46536303  0.52887537  0.14162667  1
  C  C549  1  0.86220870  0.73017900  0.52504000  1
  C  C550  1  0.26982100  0.13202970  0.52504000  1
  C  C551  1  0.86797030  0.13779130  0.52504000  1
  C  C552  1  0.19554203  0.39684567  0.19170667  1
  C  C553  1  0.60315433  0.79869637  0.19170667  1
  C  C554  1  0.20130363  0.80445797  0.19170667  1
  C  C555  1  0.52887537  0.06351233  0.85837333  1
  C  C556  1  0.93648767  0.46536303  0.85837333  1
  C  C557  1  0.53463697  0.47112463  0.85837333  1
  H  H558  1  0.13862000  0.27627000  0.55404000  1
  H  H559  1  0.72373000  0.86235000  0.55404000  1
  H  H560  1  0.13765000  0.86138000  0.55404000  1
  H  H561  1  0.80528667  0.60960333  0.88737333  1
  H  H562  1  0.39039667  0.19568333  0.88737333  1
  H  H563  1  0.80431667  0.19471333  0.88737333  1
  H  H564  1  0.47195333  0.94293667  0.22070667  1
  H  H565  1  0.05706333  0.52901667  0.22070667  1
  H  H566  1  0.47098333  0.52804667  0.22070667  1
  H  H567  1  0.86138000  0.72373000  0.44596000  1
  H  H568  1  0.27627000  0.13765000  0.44596000  1
  H  H569  1  0.86235000  0.13862000  0.44596000  1
  H  H570  1  0.19471333  0.39039667  0.11262667  1
  H  H571  1  0.60960333  0.80431667  0.11262667  1
  H  H572  1  0.19568333  0.80528667  0.11262667  1
  H  H573  1  0.52804667  0.05706333  0.77929333  1
  H  H574  1  0.94293667  0.47098333  0.77929333  1
  H  H575  1  0.52901667  0.47195333  0.77929333  1
  C  C576  1  0.15047150  0.26284110  0.45376000  1
  C  C577  1  0.73715890  0.88763040  0.45376000  1
  C  C578  1  0.11236960  0.84952850  0.45376000  1
  C  C579  1  0.81713817  0.59617443  0.78709333  1
  C  C580  1  0.40382557  0.22096373  0.78709333  1
  C  C581  1  0.77903627  0.18286183  0.78709333  1
  C  C582  1  0.48380483  0.92950777  0.12042667  1
  C  C583  1  0.07049223  0.55429707  0.12042667  1
  C  C584  1  0.44570293  0.51619517  0.12042667  1
  C  C585  1  0.84952850  0.73715890  0.54624000  1
  C  C586  1  0.26284110  0.11236960  0.54624000  1
  C  C587  1  0.88763040  0.15047150  0.54624000  1
  C  C588  1  0.18286183  0.40382557  0.21290667  1
  C  C589  1  0.59617443  0.77903627  0.21290667  1
  C  C590  1  0.22096373  0.81713817  0.21290667  1
  C  C591  1  0.51619517  0.07049223  0.87957333  1
  C  C592  1  0.92950777  0.44570293  0.87957333  1
  C  C593  1  0.55429707  0.48380483  0.87957333  1
  H  H594  1  0.16009000  0.26483000  0.51586000  1
  H  H595  1  0.73517000  0.89526000  0.51586000  1
  H  H596  1  0.10474000  0.83991000  0.51586000  1
  H  H597  1  0.82675667  0.59816333  0.84919333  1
  H  H598  1  0.40183667  0.22859333  0.84919333  1
  H  H599  1  0.77140667  0.17324333  0.84919333  1
  H  H600  1  0.49342333  0.93149667  0.18252667  1
  H  H601  1  0.06850333  0.56192667  0.18252667  1
  H  H602  1  0.43807333  0.50657667  0.18252667  1
  H  H603  1  0.83991000  0.73517000  0.48414000  1
  H  H604  1  0.26483000  0.10474000  0.48414000  1
  H  H605  1  0.89526000  0.16009000  0.48414000  1
  H  H606  1  0.17324333  0.40183667  0.15080667  1
  H  H607  1  0.59816333  0.77140667  0.15080667  1
  H  H608  1  0.22859333  0.82675667  0.15080667  1
  H  H609  1  0.50657667  0.06850333  0.81747333  1
  H  H610  1  0.93149667  0.43807333  0.81747333  1
  H  H611  1  0.56192667  0.49342333  0.81747333  1
  C  C612  1  0.10930110  0.27376800  0.41435000  1
  C  C613  1  0.72623200  0.83553310  0.41435000  1
  C  C614  1  0.16446690  0.89069890  0.41435000  1
  C  C615  1  0.77596777  0.60710133  0.74768333  1
  C  C616  1  0.39289867  0.16886643  0.74768333  1
  C  C617  1  0.83113357  0.22403223  0.74768333  1
  C  C618  1  0.44263443  0.94043467  0.08101667  1
  C  C619  1  0.05956533  0.50219977  0.08101667  1
  C  C620  1  0.49780023  0.55736557  0.08101667  1
  C  C621  1  0.89069890  0.72623200  0.58565000  1
  C  C622  1  0.27376800  0.16446690  0.58565000  1
  C  C623  1  0.83553310  0.10930110  0.58565000  1
  C  C624  1  0.22403223  0.39289867  0.25231667  1
  C  C625  1  0.60710133  0.83113357  0.25231667  1
  C  C626  1  0.16886643  0.77596777  0.25231667  1
  C  C627  1  0.55736557  0.05956533  0.91898333  1
  C  C628  1  0.94043467  0.49780023  0.91898333  1
  C  C629  1  0.50219977  0.44263443  0.91898333  1
  C  C630  1  0.09673130  0.26280900  0.51305000  1
  C  C631  1  0.73719100  0.83392230  0.51305000  1
  C  C632  1  0.16607770  0.90326870  0.51305000  1
  C  C633  1  0.76339797  0.59614233  0.84638333  1
  C  C634  1  0.40385767  0.16725563  0.84638333  1
  C  C635  1  0.83274437  0.23660203  0.84638333  1
  C  C636  1  0.43006463  0.92947567  0.17971667  1
  C  C637  1  0.07052433  0.50058897  0.17971667  1
  C  C638  1  0.49941103  0.56993537  0.17971667  1
  C  C639  1  0.90326870  0.73719100  0.48695000  1
  C  C640  1  0.26280900  0.16607770  0.48695000  1
  C  C641  1  0.83392230  0.09673130  0.48695000  1
  C  C642  1  0.23660203  0.40385767  0.15361667  1
  C  C643  1  0.59614233  0.83274437  0.15361667  1
  C  C644  1  0.16725563  0.76339797  0.15361667  1
  C  C645  1  0.56993537  0.07052433  0.82028333  1
  C  C646  1  0.92947567  0.49941103  0.82028333  1
  C  C647  1  0.50058897  0.43006463  0.82028333  1
  H  H648  1  0.09817000  0.25289000  0.55365000  1
  H  H649  1  0.74711000  0.84528000  0.55365000  1
  H  H650  1  0.15472000  0.90183000  0.55365000  1
  H  H651  1  0.76483667  0.58622333  0.88698333  1
  H  H652  1  0.41377667  0.17861333  0.88698333  1
  H  H653  1  0.82138667  0.23516333  0.88698333  1
  H  H654  1  0.43150333  0.91955667  0.22031667  1
  H  H655  1  0.08044333  0.51194667  0.22031667  1
  H  H656  1  0.48805333  0.56849667  0.22031667  1
  H  H657  1  0.90183000  0.74711000  0.44635000  1
  H  H658  1  0.25289000  0.15472000  0.44635000  1
  H  H659  1  0.84528000  0.09817000  0.44635000  1
  H  H660  1  0.23516333  0.41377667  0.11301667  1
  H  H661  1  0.58622333  0.82138667  0.11301667  1
  H  H662  1  0.17861333  0.76483667  0.11301667  1
  H  H663  1  0.56849667  0.08044333  0.77968333  1
  H  H664  1  0.91955667  0.48805333  0.77968333  1
  H  H665  1  0.51194667  0.43150333  0.77968333  1
  C  C666  1  0.08181130  0.26634900  0.55325000  1
  C  C667  1  0.73365100  0.81546230  0.55325000  1
  C  C668  1  0.18453770  0.91818870  0.55325000  1
  C  C669  1  0.74847797  0.59968233  0.88658333  1
  C  C670  1  0.40031767  0.14879563  0.88658333  1
  C  C671  1  0.85120437  0.25152203  0.88658333  1
  C  C672  1  0.41514463  0.93301567  0.21991667  1
  C  C673  1  0.06698433  0.48212897  0.21991667  1
  C  C674  1  0.51787103  0.58485537  0.21991667  1
  C  C675  1  0.91818870  0.73365100  0.44675000  1
  C  C676  1  0.26634900  0.18453770  0.44675000  1
  C  C677  1  0.81546230  0.08181130  0.44675000  1
  C  C678  1  0.25152203  0.40031767  0.11341667  1
  C  C679  1  0.59968233  0.85120437  0.11341667  1
  C  C680  1  0.14879563  0.74847797  0.11341667  1
  C  C681  1  0.58485537  0.06698433  0.78008333  1
  C  C682  1  0.93301567  0.51787103  0.78008333  1
  C  C683  1  0.48212897  0.41514463  0.78008333  1
  H  H684  1  0.07419000  0.26007000  0.62737000  1
  H  H685  1  0.73993000  0.81412000  0.62737000  1
  H  H686  1  0.18588000  0.92581000  0.62737000  1
  H  H687  1  0.74085667  0.59340333  0.96070333  1
  H  H688  1  0.40659667  0.14745333  0.96070333  1
  H  H689  1  0.85254667  0.25914333  0.96070333  1
  H  H690  1  0.40752333  0.92673667  0.29403667  1
  H  H691  1  0.07326333  0.48078667  0.29403667  1
  H  H692  1  0.51921333  0.59247667  0.29403667  1
  H  H693  1  0.92581000  0.73993000  0.37263000  1
  H  H694  1  0.26007000  0.18588000  0.37263000  1
  H  H695  1  0.81412000  0.07419000  0.37263000  1
  H  H696  1  0.25914333  0.40659667  0.03929667  1
  H  H697  1  0.59340333  0.85254667  0.03929667  1
  H  H698  1  0.14745333  0.74085667  0.03929667  1
  H  H699  1  0.59247667  0.07326333  0.70596333  1
  H  H700  1  0.92673667  0.51921333  0.70596333  1
  H  H701  1  0.48078667  0.40752333  0.70596333  1
  C  C702  1  0.07862130  0.27889900  0.48325000  1
  C  C703  1  0.72110100  0.79972230  0.48325000  1
  C  C704  1  0.20027770  0.92137870  0.48325000  1
  C  C705  1  0.74528797  0.61223233  0.81658333  1
  C  C706  1  0.38776767  0.13305563  0.81658333  1
  C  C707  1  0.86694437  0.25471203  0.81658333  1
  C  C708  1  0.41195463  0.94556567  0.14991667  1
  C  C709  1  0.05443433  0.46638897  0.14991667  1
  C  C710  1  0.53361103  0.58804537  0.14991667  1
  C  C711  1  0.92137870  0.72110100  0.51675000  1
  C  C712  1  0.27889900  0.20027770  0.51675000  1
  C  C713  1  0.79972230  0.07862130  0.51675000  1
  C  C714  1  0.25471203  0.38776767  0.18341667  1
  C  C715  1  0.61223233  0.86694437  0.18341667  1
  C  C716  1  0.13305563  0.74528797  0.18341667  1
  C  C717  1  0.58804537  0.05443433  0.85008333  1
  C  C718  1  0.94556567  0.53361103  0.85008333  1
  C  C719  1  0.46638897  0.41195463  0.85008333  1
  H  H720  1  0.06849000  0.28117000  0.50943000  1
  H  H721  1  0.71883000  0.78732000  0.50943000  1
  H  H722  1  0.21268000  0.93151000  0.50943000  1
  H  H723  1  0.73515667  0.61450333  0.84276333  1
  H  H724  1  0.38549667  0.12065333  0.84276333  1
  H  H725  1  0.87934667  0.26484333  0.84276333  1
  H  H726  1  0.40182333  0.94783667  0.17609667  1
  H  H727  1  0.05216333  0.45398667  0.17609667  1
  H  H728  1  0.54601333  0.59817667  0.17609667  1
  H  H729  1  0.93151000  0.71883000  0.49057000  1
  H  H730  1  0.28117000  0.21268000  0.49057000  1
  H  H731  1  0.78732000  0.06849000  0.49057000  1
  H  H732  1  0.26484333  0.38549667  0.15723667  1
  H  H733  1  0.61450333  0.87934667  0.15723667  1
  H  H734  1  0.12065333  0.73515667  0.15723667  1
  H  H735  1  0.59817667  0.05216333  0.82390333  1
  H  H736  1  0.94783667  0.54601333  0.82390333  1
  H  H737  1  0.45398667  0.40182333  0.82390333  1
  C  C738  1  0.08959110  0.28863800  0.37425000  1
  C  C739  1  0.71136200  0.80095310  0.37425000  1
  C  C740  1  0.19904690  0.91040890  0.37425000  1
  C  C741  1  0.75625777  0.62197133  0.70758333  1
  C  C742  1  0.37802867  0.13428643  0.70758333  1
  C  C743  1  0.86571357  0.24374223  0.70758333  1
  C  C744  1  0.42292443  0.95530467  0.04091667  1
  C  C745  1  0.04469533  0.46761977  0.04091667  1
  C  C746  1  0.53238023  0.57707557  0.04091667  1
  C  C747  1  0.91040890  0.71136200  0.62575000  1
  C  C748  1  0.28863800  0.19904690  0.62575000  1
  C  C749  1  0.80095310  0.08959110  0.62575000  1
  C  C750  1  0.24374223  0.37802867  0.29241667  1
  C  C751  1  0.62197133  0.86571357  0.29241667  1
  C  C752  1  0.13428643  0.75625777  0.29241667  1
  C  C753  1  0.57707557  0.04469533  0.95908333  1
  C  C754  1  0.95530467  0.53238023  0.95908333  1
  C  C755  1  0.46761977  0.42292443  0.95908333  1
  C  C756  1  0.10682110  0.28818800  0.34935000  1
  C  C757  1  0.71181200  0.81863310  0.34935000  1
  C  C758  1  0.18136690  0.89317890  0.34935000  1
  C  C759  1  0.77348777  0.62152133  0.68268333  1
  C  C760  1  0.37847867  0.15196643  0.68268333  1
  C  C761  1  0.84803357  0.22651223  0.68268333  1
  C  C762  1  0.44015443  0.95485467  0.01601667  1
  C  C763  1  0.04514533  0.48529977  0.01601667  1
  C  C764  1  0.51470023  0.55984557  0.01601667  1
  C  C765  1  0.89317890  0.71181200  0.65065000  1
  C  C766  1  0.28818800  0.18136690  0.65065000  1
  C  C767  1  0.81863310  0.10682110  0.65065000  1
  C  C768  1  0.22651223  0.37847867  0.31731667  1
  C  C769  1  0.62152133  0.84803357  0.31731667  1
  C  C770  1  0.15196643  0.77348777  0.31731667  1
  C  C771  1  0.55984557  0.04514533  0.98398333  1
  C  C772  1  0.95485467  0.51470023  0.98398333  1
  C  C773  1  0.48529977  0.44015443  0.98398333  1
  C  C774  1  0.12175110  0.30381800  0.26725000  1
  C  C775  1  0.69618200  0.81793310  0.26725000  1
  C  C776  1  0.18206690  0.87824890  0.26725000  1
  C  C777  1  0.78841777  0.63715133  0.60058333  1
  C  C778  1  0.36284867  0.15126643  0.60058333  1
  C  C779  1  0.84873357  0.21158223  0.60058333  1
  C  C780  1  0.45508443  0.97048467  0.93391667  1
  C  C781  1  0.02951533  0.48459977  0.93391667  1
  C  C782  1  0.51540023  0.54491557  0.93391667  1
  C  C783  1  0.87824890  0.69618200  0.73275000  1
  C  C784  1  0.30381800  0.18206690  0.73275000  1
  C  C785  1  0.81793310  0.12175110  0.73275000  1
  C  C786  1  0.21158223  0.36284867  0.39941667  1
  C  C787  1  0.63715133  0.84873357  0.39941667  1
  C  C788  1  0.15126643  0.78841777  0.39941667  1
  C  C789  1  0.54491557  0.02951533  0.06608333  1
  C  C790  1  0.97048467  0.51540023  0.06608333  1
  C  C791  1  0.48459977  0.45508443  0.06608333  1
  C  C792  1  0.14095120  0.30669900  0.26345000  1
  C  C793  1  0.69330100  0.83425220  0.26345000  1
  C  C794  1  0.16574780  0.85904880  0.26345000  1
  C  C795  1  0.80761787  0.64003233  0.59678333  1
  C  C796  1  0.35996767  0.16758553  0.59678333  1
  C  C797  1  0.83241447  0.19238213  0.59678333  1
  C  C798  1  0.47428453  0.97336567  0.93011667  1
  C  C799  1  0.02663433  0.50091887  0.93011667  1
  C  C800  1  0.49908113  0.52571547  0.93011667  1
  C  C801  1  0.85904880  0.69330100  0.73655000  1
  C  C802  1  0.30669900  0.16574780  0.73655000  1
  C  C803  1  0.83425220  0.14095120  0.73655000  1
  C  C804  1  0.19238213  0.35996767  0.40321667  1
  C  C805  1  0.64003233  0.83241447  0.40321667  1
  C  C806  1  0.16758553  0.80761787  0.40321667  1
  C  C807  1  0.52571547  0.02663433  0.06988333  1
  C  C808  1  0.97336567  0.49908113  0.06988333  1
  C  C809  1  0.50091887  0.47428453  0.06988333  1
  H  H810  1  0.14372000  0.29764000  0.30411000  1
  H  H811  1  0.70236000  0.84608000  0.30411000  1
  H  H812  1  0.15392000  0.85628000  0.30411000  1
  H  H813  1  0.81038667  0.63097333  0.63744333  1
  H  H814  1  0.36902667  0.17941333  0.63744333  1
  H  H815  1  0.82058667  0.18961333  0.63744333  1
  H  H816  1  0.47705333  0.96430667  0.97077667  1
  H  H817  1  0.03569333  0.51274667  0.97077667  1
  H  H818  1  0.48725333  0.52294667  0.97077667  1
  H  H819  1  0.85628000  0.70236000  0.69589000  1
  H  H820  1  0.29764000  0.15392000  0.69589000  1
  H  H821  1  0.84608000  0.14372000  0.69589000  1
  H  H822  1  0.18961333  0.36902667  0.36255667  1
  H  H823  1  0.63097333  0.82058667  0.36255667  1
  H  H824  1  0.17941333  0.81038667  0.36255667  1
  H  H825  1  0.52294667  0.03569333  0.02922333  1
  H  H826  1  0.96430667  0.48725333  0.02922333  1
  H  H827  1  0.51274667  0.47705333  0.02922333  1
  C  C828  1  0.15558130  0.32274900  0.20026000  1
  C  C829  1  0.67725100  0.83283230  0.20026000  1
  C  C830  1  0.16716770  0.84441870  0.20026000  1
  C  C831  1  0.82224797  0.65608233  0.53359333  1
  C  C832  1  0.34391767  0.16616563  0.53359333  1
  C  C833  1  0.83383437  0.17775203  0.53359333  1
  C  C834  1  0.48891463  0.98941567  0.86692667  1
  C  C835  1  0.01058433  0.49949897  0.86692667  1
  C  C836  1  0.50050103  0.51108537  0.86692667  1
  C  C837  1  0.84441870  0.67725100  0.79974000  1
  C  C838  1  0.32274900  0.16716770  0.79974000  1
  C  C839  1  0.83283230  0.15558130  0.79974000  1
  C  C840  1  0.17775203  0.34391767  0.46640667  1
  C  C841  1  0.65608233  0.83383437  0.46640667  1
  C  C842  1  0.16616563  0.82224797  0.46640667  1
  C  C843  1  0.51108537  0.01058433  0.13307333  1
  C  C844  1  0.98941567  0.50050103  0.13307333  1
  C  C845  1  0.49949897  0.48891463  0.13307333  1
  H  H846  1  0.16824000  0.32440000  0.19527000  1
  H  H847  1  0.67560000  0.84384000  0.19527000  1
  H  H848  1  0.15616000  0.83176000  0.19527000  1
  H  H849  1  0.83490667  0.65773333  0.52860333  1
  H  H850  1  0.34226667  0.17717333  0.52860333  1
  H  H851  1  0.82282667  0.16509333  0.52860333  1
  H  H852  1  0.50157333  0.99106667  0.86193667  1
  H  H853  1  0.00893333  0.51050667  0.86193667  1
  H  H854  1  0.48949333  0.49842667  0.86193667  1
  H  H855  1  0.83176000  0.67560000  0.80473000  1
  H  H856  1  0.32440000  0.15616000  0.80473000  1
  H  H857  1  0.84384000  0.16824000  0.80473000  1
  H  H858  1  0.16509333  0.34226667  0.47139667  1
  H  H859  1  0.65773333  0.82282667  0.47139667  1
  H  H860  1  0.17717333  0.83490667  0.47139667  1
  H  H861  1  0.49842667  0.00893333  0.13806333  1
  H  H862  1  0.99106667  0.48949333  0.13806333  1
  H  H863  1  0.51050667  0.50157333  0.13806333  1
  C  C864  1  0.15191130  0.33613900  0.14526000  1
  C  C865  1  0.66386100  0.81577230  0.14526000  1
  C  C866  1  0.18422770  0.84808870  0.14526000  1
  C  C867  1  0.81857797  0.66947233  0.47859333  1
  C  C868  1  0.33052767  0.14910563  0.47859333  1
  C  C869  1  0.85089437  0.18142203  0.47859333  1
  C  C870  1  0.48524463  0.00280567  0.81192667  1
  C  C871  1  0.00000000  0.48243897  0.81192667  1
  C  C872  1  0.51756103  0.51475537  0.81192667  1
  C  C873  1  0.84808870  0.66386100  0.85474000  1
  C  C874  1  0.33613900  0.18422770  0.85474000  1
  C  C875  1  0.81577230  0.15191130  0.85474000  1
  C  C876  1  0.18142203  0.33052767  0.52140667  1
  C  C877  1  0.66947233  0.85089437  0.52140667  1
  C  C878  1  0.14910563  0.81857797  0.52140667  1
  C  C879  1  0.51475537  0.00000000  0.18807333  1
  C  C880  1  0.00280567  0.51756103  0.18807333  1
  C  C881  1  0.48243897  0.48524463  0.18807333  1
  H  H882  1  0.16222000  0.34723000  0.10474000  1
  H  H883  1  0.65277000  0.81499000  0.10474000  1
  H  H884  1  0.18501000  0.83778000  0.10474000  1
  H  H885  1  0.82888667  0.68056333  0.43807333  1
  H  H886  1  0.31943667  0.14832333  0.43807333  1
  H  H887  1  0.85167667  0.17111333  0.43807333  1
  H  H888  1  0.49555333  0.01389667  0.77140667  1
  H  H889  1  0.98610333  0.48165667  0.77140667  1
  H  H890  1  0.51834333  0.50444667  0.77140667  1
  H  H891  1  0.83778000  0.65277000  0.89526000  1
  H  H892  1  0.34723000  0.18501000  0.89526000  1
  H  H893  1  0.81499000  0.16222000  0.89526000  1
  H  H894  1  0.17111333  0.31943667  0.56192667  1
  H  H895  1  0.68056333  0.85167667  0.56192667  1
  H  H896  1  0.14832333  0.82888667  0.56192667  1
  H  H897  1  0.50444667  0.98610333  0.22859333  1
  H  H898  1  0.01389667  0.51834333  0.22859333  1
  H  H899  1  0.48165667  0.49555333  0.22859333  1
  C  C900  1  0.13325110  0.33393800  0.14675000  1
  C  C901  1  0.66606200  0.79931310  0.14675000  1
  C  C902  1  0.20068690  0.86674890  0.14675000  1
  C  C903  1  0.79991777  0.66727133  0.48008333  1
  C  C904  1  0.33272867  0.13264643  0.48008333  1
  C  C905  1  0.86735357  0.20008223  0.48008333  1
  C  C906  1  0.46658443  0.00060467  0.81341667  1
  C  C907  1  0.00000000  0.46597977  0.81341667  1
  C  C908  1  0.53402023  0.53341557  0.81341667  1
  C  C909  1  0.86674890  0.66606200  0.85325000  1
  C  C910  1  0.33393800  0.20068690  0.85325000  1
  C  C911  1  0.79931310  0.13325110  0.85325000  1
  C  C912  1  0.20008223  0.33272867  0.51991667  1
  C  C913  1  0.66727133  0.86735357  0.51991667  1
  C  C914  1  0.13264643  0.79991777  0.51991667  1
  C  C915  1  0.53341557  0.00000000  0.18658333  1
  C  C916  1  0.00060467  0.53402023  0.18658333  1
  C  C917  1  0.46597977  0.46658443  0.18658333  1
  C  C918  1  0.13231110  0.35082800  0.09475000  1
  C  C919  1  0.64917200  0.78148310  0.09475000  1
  C  C920  1  0.21851690  0.86768890  0.09475000  1
  C  C921  1  0.79897777  0.68416133  0.42808333  1
  C  C922  1  0.31583867  0.11481643  0.42808333  1
  C  C923  1  0.88518357  0.20102223  0.42808333  1
  C  C924  1  0.46564443  0.01749467  0.76141667  1
  C  C925  1  0.98250533  0.44814977  0.76141667  1
  C  C926  1  0.55185023  0.53435557  0.76141667  1
  C  C927  1  0.86768890  0.64917200  0.90525000  1
  C  C928  1  0.35082800  0.21851690  0.90525000  1
  C  C929  1  0.78148310  0.13231110  0.90525000  1
  C  C930  1  0.20102223  0.31583867  0.57191667  1
  C  C931  1  0.68416133  0.88518357  0.57191667  1
  C  C932  1  0.11481643  0.79897777  0.57191667  1
  C  C933  1  0.53435557  0.98250533  0.23858333  1
  C  C934  1  0.01749467  0.55185023  0.23858333  1
  C  C935  1  0.44814977  0.46564443  0.23858333  1
  C  C936  1  0.13830130  0.35734900  0.96834000  1
  C  C937  1  0.64265100  0.78095230  0.96834000  1
  C  C938  1  0.21904770  0.86169870  0.96834000  1
  C  C939  1  0.80496797  0.69068233  0.30167333  1
  C  C940  1  0.30931767  0.11428563  0.30167333  1
  C  C941  1  0.88571437  0.19503203  0.30167333  1
  C  C942  1  0.47163463  0.02401567  0.63500667  1
  C  C943  1  0.97598433  0.44761897  0.63500667  1
  C  C944  1  0.55238103  0.52836537  0.63500667  1
  C  C945  1  0.86169870  0.64265100  0.03166000  1
  C  C946  1  0.35734900  0.21904770  0.03166000  1
  C  C947  1  0.78095230  0.13830130  0.03166000  1
  C  C948  1  0.19503203  0.30931767  0.69832667  1
  C  C949  1  0.69068233  0.88571437  0.69832667  1
  C  C950  1  0.11428563  0.80496797  0.69832667  1
  C  C951  1  0.52836537  0.97598433  0.36499333  1
  C  C952  1  0.02401567  0.55238103  0.36499333  1
  C  C953  1  0.44761897  0.47163463  0.36499333  1
  H  H954  1  0.14210000  0.35029000  0.91304000  1
  H  H955  1  0.64971000  0.79181000  0.91304000  1
  H  H956  1  0.20819000  0.85790000  0.91304000  1
  H  H957  1  0.80876667  0.68362333  0.24637333  1
  H  H958  1  0.31637667  0.12514333  0.24637333  1
  H  H959  1  0.87485667  0.19123333  0.24637333  1
  H  H960  1  0.47543333  0.01695667  0.57970667  1
  H  H961  1  0.98304333  0.45847667  0.57970667  1
  H  H962  1  0.54152333  0.52456667  0.57970667  1
  H  H963  1  0.85790000  0.64971000  0.08696000  1
  H  H964  1  0.35029000  0.20819000  0.08696000  1
  H  H965  1  0.79181000  0.14210000  0.08696000  1
  H  H966  1  0.19123333  0.31637667  0.75362667  1
  H  H967  1  0.68362333  0.87485667  0.75362667  1
  H  H968  1  0.12514333  0.80876667  0.75362667  1
  H  H969  1  0.52456667  0.98304333  0.42029333  1
  H  H970  1  0.01695667  0.54152333  0.42029333  1
  H  H971  1  0.45847667  0.47543333  0.42029333  1
  C  C972  1  0.13879130  0.37392900  0.92244000  1
  C  C973  1  0.62607100  0.76486230  0.92244000  1
  C  C974  1  0.23513770  0.86120870  0.92244000  1
  C  C975  1  0.80545797  0.70726233  0.25577333  1
  C  C976  1  0.29273767  0.09819563  0.25577333  1
  C  C977  1  0.90180437  0.19454203  0.25577333  1
  C  C978  1  0.47212463  0.04059567  0.58910667  1
  C  C979  1  0.95940433  0.43152897  0.58910667  1
  C  C980  1  0.56847103  0.52787537  0.58910667  1
  C  C981  1  0.86120870  0.62607100  0.07756000  1
  C  C982  1  0.37392900  0.23513770  0.07756000  1
  C  C983  1  0.76486230  0.13879130  0.07756000  1
  C  C984  1  0.19454203  0.29273767  0.74422667  1
  C  C985  1  0.70726233  0.90180437  0.74422667  1
  C  C986  1  0.09819563  0.80545797  0.74422667  1
  C  C987  1  0.52787537  0.95940433  0.41089333  1
  C  C988  1  0.04059567  0.56847103  0.41089333  1
  C  C989  1  0.43152897  0.47212463  0.41089333  1
  H  H990  1  0.14271000  0.37795000  0.83579000  1
  H  H991  1  0.62205000  0.76476000  0.83579000  1
  H  H992  1  0.23524000  0.85729000  0.83579000  1
  H  H993  1  0.80937667  0.71128333  0.16912333  1
  H  H994  1  0.28871667  0.09809333  0.16912333  1
  H  H995  1  0.90190667  0.19062333  0.16912333  1
  H  H996  1  0.47604333  0.04461667  0.50245667  1
  H  H997  1  0.95538333  0.43142667  0.50245667  1
  H  H998  1  0.56857333  0.52395667  0.50245667  1
  H  H999  1  0.85729000  0.62205000  0.16421000  1
  H  H1000  1  0.37795000  0.23524000  0.16421000  1
  H  H1001  1  0.76476000  0.14271000  0.16421000  1
  H  H1002  1  0.19062333  0.28871667  0.83087667  1
  H  H1003  1  0.71128333  0.90190667  0.83087667  1
  H  H1004  1  0.09809333  0.80937667  0.83087667  1
  H  H1005  1  0.52395667  0.95538333  0.49754333  1
  H  H1006  1  0.04461667  0.56857333  0.49754333  1
  H  H1007  1  0.43142667  0.47604333  0.49754333  1
  C  C1008  1  0.13366120  0.38465900  0.00075000  1
  C  C1009  1  0.61534100  0.74900220  0.00075000  1
  C  C1010  1  0.25099780  0.86633880  0.00075000  1
  C  C1011  1  0.80032787  0.71799233  0.33408333  1
  C  C1012  1  0.28200767  0.08233553  0.33408333  1
  C  C1013  1  0.91766447  0.19967213  0.33408333  1
  C  C1014  1  0.46699453  0.05132567  0.66741667  1
  C  C1015  1  0.94867433  0.41566887  0.66741667  1
  C  C1016  1  0.58433113  0.53300547  0.66741667  1
  C  C1017  1  0.86633880  0.61534100  0.00000000  1
  C  C1018  1  0.38465900  0.25099780  0.00000000  1
  C  C1019  1  0.74900220  0.13366120  0.00000000  1
  C  C1020  1  0.19967213  0.28200767  0.66591667  1
  C  C1021  1  0.71799233  0.91766447  0.66591667  1
  C  C1022  1  0.08233553  0.80032787  0.66591667  1
  C  C1023  1  0.53300547  0.94867433  0.33258333  1
  C  C1024  1  0.05132567  0.58433113  0.33258333  1
  C  C1025  1  0.41566887  0.46699453  0.33258333  1
  C  C1026  1  0.13619130  0.40346900  0.95395000  1
  C  C1027  1  0.59653100  0.73272230  0.95395000  1
  C  C1028  1  0.26727770  0.86380870  0.95395000  1
  C  C1029  1  0.80285797  0.73680233  0.28728333  1
  C  C1030  1  0.26319767  0.06605563  0.28728333  1
  C  C1031  1  0.93394437  0.19714203  0.28728333  1
  C  C1032  1  0.46952463  0.07013567  0.62061667  1
  C  C1033  1  0.92986433  0.39938897  0.62061667  1
  C  C1034  1  0.60061103  0.53047537  0.62061667  1
  C  C1035  1  0.86380870  0.59653100  0.04605000  1
  C  C1036  1  0.40346900  0.26727770  0.04605000  1
  C  C1037  1  0.73272230  0.13619130  0.04605000  1
  C  C1038  1  0.19714203  0.26319767  0.71271667  1
  C  C1039  1  0.73680233  0.93394437  0.71271667  1
  C  C1040  1  0.06605563  0.80285797  0.71271667  1
  C  C1041  1  0.53047537  0.92986433  0.37938333  1
  C  C1042  1  0.07013567  0.60061103  0.37938333  1
  C  C1043  1  0.39938897  0.46952463  0.37938333  1
  C  C1044  1  0.12762130  0.37819100  0.12606000  1
  C  C1045  1  0.62180900  0.74943030  0.12606000  1
  C  C1046  1  0.25056970  0.87237870  0.12606000  1
  C  C1047  1  0.79428797  0.71152433  0.45939333  1
  C  C1048  1  0.28847567  0.08276363  0.45939333  1
  C  C1049  1  0.91723637  0.20571203  0.45939333  1
  C  C1050  1  0.46095463  0.04485767  0.79272667  1
  C  C1051  1  0.95514233  0.41609697  0.79272667  1
  C  C1052  1  0.58390303  0.53904537  0.79272667  1
  C  C1053  1  0.87237870  0.62180900  0.87394000  1
  C  C1054  1  0.37819100  0.25056970  0.87394000  1
  C  C1055  1  0.74943030  0.12762130  0.87394000  1
  C  C1056  1  0.20571203  0.28847567  0.54060667  1
  C  C1057  1  0.71152433  0.91723637  0.54060667  1
  C  C1058  1  0.08276363  0.79428797  0.54060667  1
  C  C1059  1  0.53904537  0.95514233  0.20727333  1
  C  C1060  1  0.04485767  0.58390303  0.20727333  1
  C  C1061  1  0.41609697  0.46095463  0.20727333  1
  H  H1062  1  0.12400000  0.38542000  0.18097000  1
  H  H1063  1  0.61458000  0.73858000  0.18097000  1
  H  H1064  1  0.26142000  0.87600000  0.18097000  1
  H  H1065  1  0.79066667  0.71875333  0.51430333  1
  H  H1066  1  0.28124667  0.07191333  0.51430333  1
  H  H1067  1  0.92808667  0.20933333  0.51430333  1
  H  H1068  1  0.45733333  0.05208667  0.84763667  1
  H  H1069  1  0.94791333  0.40524667  0.84763667  1
  H  H1070  1  0.59475333  0.54266667  0.84763667  1
  H  H1071  1  0.87600000  0.61458000  0.81903000  1
  H  H1072  1  0.38542000  0.26142000  0.81903000  1
  H  H1073  1  0.73858000  0.12400000  0.81903000  1
  H  H1074  1  0.20933333  0.28124667  0.48569667  1
  H  H1075  1  0.71875333  0.92808667  0.48569667  1
  H  H1076  1  0.07191333  0.79066667  0.48569667  1
  H  H1077  1  0.54266667  0.94791333  0.15236333  1
  H  H1078  1  0.05208667  0.59475333  0.15236333  1
  H  H1079  1  0.40524667  0.45733333  0.15236333  1
  C  C1080  1  0.12672130  0.36131900  0.17356000  1
  C  C1081  1  0.63868100  0.76540230  0.17356000  1
  C  C1082  1  0.23459770  0.87327870  0.17356000  1
  C  C1083  1  0.79338797  0.69465233  0.50689333  1
  C  C1084  1  0.30534767  0.09873563  0.50689333  1
  C  C1085  1  0.90126437  0.20661203  0.50689333  1
  C  C1086  1  0.46005463  0.02798567  0.84022667  1
  C  C1087  1  0.97201433  0.43206897  0.84022667  1
  C  C1088  1  0.56793103  0.53994537  0.84022667  1
  C  C1089  1  0.87327870  0.63868100  0.82644000  1
  C  C1090  1  0.36131900  0.23459770  0.82644000  1
  C  C1091  1  0.76540230  0.12672130  0.82644000  1
  C  C1092  1  0.20661203  0.30534767  0.49310667  1
  C  C1093  1  0.69465233  0.90126437  0.49310667  1
  C  C1094  1  0.09873563  0.79338797  0.49310667  1
  C  C1095  1  0.53994537  0.97201433  0.15977333  1
  C  C1096  1  0.02798567  0.56793103  0.15977333  1
  C  C1097  1  0.43206897  0.46005463  0.15977333  1
  H  H1098  1  0.12230000  0.35703000  0.25908000  1
  H  H1099  1  0.64297000  0.76527000  0.25908000  1
  H  H1100  1  0.23473000  0.87770000  0.25908000  1
  H  H1101  1  0.78896667  0.69036333  0.59241333  1
  H  H1102  1  0.30963667  0.09860333  0.59241333  1
  H  H1103  1  0.90139667  0.21103333  0.59241333  1
  H  H1104  1  0.45563333  0.02369667  0.92574667  1
  H  H1105  1  0.97630333  0.43193667  0.92574667  1
  H  H1106  1  0.56806333  0.54436667  0.92574667  1
  H  H1107  1  0.87770000  0.64297000  0.74092000  1
  H  H1108  1  0.35703000  0.23473000  0.74092000  1
  H  H1109  1  0.76527000  0.12230000  0.74092000  1
  H  H1110  1  0.21103333  0.30963667  0.40758667  1
  H  H1111  1  0.69036333  0.90139667  0.40758667  1
  H  H1112  1  0.09860333  0.78896667  0.40758667  1
  H  H1113  1  0.54436667  0.97630333  0.07425333  1
  H  H1114  1  0.02369667  0.56806333  0.07425333  1
  H  H1115  1  0.43193667  0.45563333  0.07425333  1
  C  C1116  1  0.11787110  0.31723800  0.20495000  1
  C  C1117  1  0.68276200  0.80063310  0.20495000  1
  C  C1118  1  0.19936690  0.88212890  0.20495000  1
  C  C1119  1  0.78453777  0.65057133  0.53828333  1
  C  C1120  1  0.34942867  0.13396643  0.53828333  1
  C  C1121  1  0.86603357  0.21546223  0.53828333  1
  C  C1122  1  0.45120443  0.98390467  0.87161667  1
  C  C1123  1  0.01609533  0.46729977  0.87161667  1
  C  C1124  1  0.53270023  0.54879557  0.87161667  1
  C  C1125  1  0.88212890  0.68276200  0.79505000  1
  C  C1126  1  0.31723800  0.19936690  0.79505000  1
  C  C1127  1  0.80063310  0.11787110  0.79505000  1
  C  C1128  1  0.21546223  0.34942867  0.46171667  1
  C  C1129  1  0.65057133  0.86603357  0.46171667  1
  C  C1130  1  0.13396643  0.78453777  0.46171667  1
  C  C1131  1  0.54879557  0.01609533  0.12838333  1
  C  C1132  1  0.98390467  0.53270023  0.12838333  1
  C  C1133  1  0.46729977  0.45120443  0.12838333  1
  C  C1134  1  0.09736110  0.31272800  0.19645000  1
  C  C1135  1  0.68727200  0.78463310  0.19645000  1
  C  C1136  1  0.21536690  0.90263890  0.19645000  1
  C  C1137  1  0.76402777  0.64606133  0.52978333  1
  C  C1138  1  0.35393867  0.11796643  0.52978333  1
  C  C1139  1  0.88203357  0.23597223  0.52978333  1
  C  C1140  1  0.43069443  0.97939467  0.86311667  1
  C  C1141  1  0.02060533  0.45129977  0.86311667  1
  C  C1142  1  0.54870023  0.56930557  0.86311667  1
  C  C1143  1  0.90263890  0.68727200  0.80355000  1
  C  C1144  1  0.31272800  0.21536690  0.80355000  1
  C  C1145  1  0.78463310  0.09736110  0.80355000  1
  C  C1146  1  0.23597223  0.35393867  0.47021667  1
  C  C1147  1  0.64606133  0.88203357  0.47021667  1
  C  C1148  1  0.11796643  0.76402777  0.47021667  1
  C  C1149  1  0.56930557  0.02060533  0.13688333  1
  C  C1150  1  0.97939467  0.54870023  0.13688333  1
  C  C1151  1  0.45129977  0.43069443  0.13688333  1
  C  C1152  1  0.09127130  0.32063900  0.10076000  1
  C  C1153  1  0.67936100  0.77063230  0.10076000  1
  C  C1154  1  0.22936770  0.90872870  0.10076000  1
  C  C1155  1  0.75793797  0.65397233  0.43409333  1
  C  C1156  1  0.34602767  0.10396563  0.43409333  1
  C  C1157  1  0.89603437  0.24206203  0.43409333  1
  C  C1158  1  0.42460463  0.98730567  0.76742667  1
  C  C1159  1  0.01269433  0.43729897  0.76742667  1
  C  C1160  1  0.56270103  0.57539537  0.76742667  1
  C  C1161  1  0.90872870  0.67936100  0.89924000  1
  C  C1162  1  0.32063900  0.22936770  0.89924000  1
  C  C1163  1  0.77063230  0.09127130  0.89924000  1
  C  C1164  1  0.24206203  0.34602767  0.56590667  1
  C  C1165  1  0.65397233  0.89603437  0.56590667  1
  C  C1166  1  0.10396563  0.75793797  0.56590667  1
  C  C1167  1  0.57539537  0.01269433  0.23257333  1
  C  C1168  1  0.98730567  0.56270103  0.23257333  1
  C  C1169  1  0.43729897  0.42460463  0.23257333  1
  H  H1170  1  0.10039000  0.32914000  0.03880000  1
  H  H1171  1  0.67086000  0.77125000  0.03880000  1
  H  H1172  1  0.22875000  0.89961000  0.03880000  1
  H  H1173  1  0.76705667  0.66247333  0.37213333  1
  H  H1174  1  0.33752667  0.10458333  0.37213333  1
  H  H1175  1  0.89541667  0.23294333  0.37213333  1
  H  H1176  1  0.43372333  0.00000000  0.70546667  1
  H  H1177  1  0.00419333  0.43791667  0.70546667  1
  H  H1178  1  0.56208333  0.56627667  0.70546667  1
  H  H1179  1  0.89961000  0.67086000  0.96120000  1
  H  H1180  1  0.32914000  0.22875000  0.96120000  1
  H  H1181  1  0.77125000  0.10039000  0.96120000  1
  H  H1182  1  0.23294333  0.33752667  0.62786667  1
  H  H1183  1  0.66247333  0.89541667  0.62786667  1
  H  H1184  1  0.10458333  0.76705667  0.62786667  1
  H  H1185  1  0.56627667  0.00419333  0.29453333  1
  H  H1186  1  0.00000000  0.56208333  0.29453333  1
  H  H1187  1  0.43791667  0.43372333  0.29453333  1
  C  C1188  1  0.07263130  0.31652900  0.09336000  1
  C  C1189  1  0.68347100  0.75610230  0.09336000  1
  C  C1190  1  0.24389770  0.92736870  0.09336000  1
  C  C1191  1  0.73929797  0.64986233  0.42669333  1
  C  C1192  1  0.35013767  0.08943563  0.42669333  1
  C  C1193  1  0.91056437  0.26070203  0.42669333  1
  C  C1194  1  0.40596463  0.98319567  0.76002667  1
  C  C1195  1  0.01680433  0.42276897  0.76002667  1
  C  C1196  1  0.57723103  0.59403537  0.76002667  1
  C  C1197  1  0.92736870  0.68347100  0.90664000  1
  C  C1198  1  0.31652900  0.24389770  0.90664000  1
  C  C1199  1  0.75610230  0.07263130  0.90664000  1
  C  C1200  1  0.26070203  0.35013767  0.57330667  1
  C  C1201  1  0.64986233  0.91056437  0.57330667  1
  C  C1202  1  0.08943563  0.73929797  0.57330667  1
  C  C1203  1  0.59403537  0.01680433  0.23997333  1
  C  C1204  1  0.98319567  0.57723103  0.23997333  1
  C  C1205  1  0.42276897  0.40596463  0.23997333  1
  H  H1206  1  0.06890000  0.32263000  0.02954000  1
  H  H1207  1  0.67737000  0.74627000  0.02954000  1
  H  H1208  1  0.25373000  0.93110000  0.02954000  1
  H  H1209  1  0.73556667  0.65596333  0.36287333  1
  H  H1210  1  0.34403667  0.07960333  0.36287333  1
  H  H1211  1  0.92039667  0.26443333  0.36287333  1
  H  H1212  1  0.40223333  0.98929667  0.69620667  1
  H  H1213  1  0.01070333  0.41293667  0.69620667  1
  H  H1214  1  0.58706333  0.59776667  0.69620667  1
  H  H1215  1  0.93110000  0.67737000  0.97046000  1
  H  H1216  1  0.32263000  0.25373000  0.97046000  1
  H  H1217  1  0.74627000  0.06890000  0.97046000  1
  H  H1218  1  0.26443333  0.34403667  0.63712667  1
  H  H1219  1  0.65596333  0.92039667  0.63712667  1
  H  H1220  1  0.07960333  0.73556667  0.63712667  1
  H  H1221  1  0.59776667  0.01070333  0.30379333  1
  H  H1222  1  0.98929667  0.58706333  0.30379333  1
  H  H1223  1  0.41293667  0.40223333  0.30379333  1
  C  C1224  1  0.05921130  0.30360900  0.17736000  1
  C  C1225  1  0.69639100  0.75560230  0.17736000  1
  C  C1226  1  0.24439770  0.94078870  0.17736000  1
  C  C1227  1  0.72587797  0.63694233  0.51069333  1
  C  C1228  1  0.36305767  0.08893563  0.51069333  1
  C  C1229  1  0.91106437  0.27412203  0.51069333  1
  C  C1230  1  0.39254463  0.97027567  0.84402667  1
  C  C1231  1  0.02972433  0.42226897  0.84402667  1
  C  C1232  1  0.57773103  0.60745537  0.84402667  1
  C  C1233  1  0.94078870  0.69639100  0.82264000  1
  C  C1234  1  0.30360900  0.24439770  0.82264000  1
  C  C1235  1  0.75560230  0.05921130  0.82264000  1
  C  C1236  1  0.27412203  0.36305767  0.48930667  1
  C  C1237  1  0.63694233  0.91106437  0.48930667  1
  C  C1238  1  0.08893563  0.72587797  0.48930667  1
  C  C1239  1  0.60745537  0.02972433  0.15597333  1
  C  C1240  1  0.97027567  0.57773103  0.15597333  1
  C  C1241  1  0.42226897  0.39254463  0.15597333  1
  H  H1242  1  0.04621000  0.30100000  0.17146000  1
  H  H1243  1  0.69900000  0.74521000  0.17146000  1
  H  H1244  1  0.25479000  0.95379000  0.17146000  1
  H  H1245  1  0.71287667  0.63433333  0.50479333  1
  H  H1246  1  0.36566667  0.07854333  0.50479333  1
  H  H1247  1  0.92145667  0.28712333  0.50479333  1
  H  H1248  1  0.37954333  0.96766667  0.83812667  1
  H  H1249  1  0.03233333  0.41187667  0.83812667  1
  H  H1250  1  0.58812333  0.62045667  0.83812667  1
  H  H1251  1  0.95379000  0.69900000  0.82854000  1
  H  H1252  1  0.30100000  0.25479000  0.82854000  1
  H  H1253  1  0.74521000  0.04621000  0.82854000  1
  H  H1254  1  0.28712333  0.36566667  0.49520667  1
  H  H1255  1  0.63433333  0.92145667  0.49520667  1
  H  H1256  1  0.07854333  0.71287667  0.49520667  1
  H  H1257  1  0.62045667  0.03233333  0.16187333  1
  H  H1258  1  0.96766667  0.58812333  0.16187333  1
  H  H1259  1  0.41187667  0.37954333  0.16187333  1
  C  C1260  1  0.06382110  0.29407800  0.27126000  1
  C  C1261  1  0.70592200  0.76974310  0.27126000  1
  C  C1262  1  0.23025690  0.93617890  0.27126000  1
  C  C1263  1  0.73048777  0.62741133  0.60459333  1
  C  C1264  1  0.37258867  0.10307643  0.60459333  1
  C  C1265  1  0.89692357  0.26951223  0.60459333  1
  C  C1266  1  0.39715443  0.96074467  0.93792667  1
  C  C1267  1  0.03925533  0.43640977  0.93792667  1
  C  C1268  1  0.56359023  0.60284557  0.93792667  1
  C  C1269  1  0.93617890  0.70592200  0.72874000  1
  C  C1270  1  0.29407800  0.23025690  0.72874000  1
  C  C1271  1  0.76974310  0.06382110  0.72874000  1
  C  C1272  1  0.26951223  0.37258867  0.39540667  1
  C  C1273  1  0.62741133  0.89692357  0.39540667  1
  C  C1274  1  0.10307643  0.73048777  0.39540667  1
  C  C1275  1  0.60284557  0.03925533  0.06207333  1
  C  C1276  1  0.96074467  0.56359023  0.06207333  1
  C  C1277  1  0.43640977  0.39715443  0.06207333  1
  C  C1278  1  0.08357120  0.29894900  0.28335000  1
  C  C1279  1  0.70105100  0.78462220  0.28335000  1
  C  C1280  1  0.21537780  0.91642880  0.28335000  1
  C  C1281  1  0.75023787  0.63228233  0.61668333  1
  C  C1282  1  0.36771767  0.11795553  0.61668333  1
  C  C1283  1  0.88204447  0.24976213  0.61668333  1
  C  C1284  1  0.41690453  0.96561567  0.95001667  1
  C  C1285  1  0.03438433  0.45128887  0.95001667  1
  C  C1286  1  0.54871113  0.58309547  0.95001667  1
  C  C1287  1  0.91642880  0.70105100  0.71665000  1
  C  C1288  1  0.29894900  0.21537780  0.71665000  1
  C  C1289  1  0.78462220  0.08357120  0.71665000  1
  C  C1290  1  0.24976213  0.36771767  0.38331667  1
  C  C1291  1  0.63228233  0.88204447  0.38331667  1
  C  C1292  1  0.11795553  0.75023787  0.38331667  1
  C  C1293  1  0.58309547  0.03438433  0.04998333  1
  C  C1294  1  0.96561567  0.54871113  0.04998333  1
  C  C1295  1  0.45128887  0.41690453  0.04998333  1
  C  C1296  1  0.04720120  0.27755900  0.33695000  1
  C  C1297  1  0.72244100  0.76964220  0.33695000  1
  C  C1298  1  0.23035780  0.95279880  0.33695000  1
  C  C1299  1  0.71386787  0.61089233  0.67028333  1
  C  C1300  1  0.38910767  0.10297553  0.67028333  1
  C  C1301  1  0.89702447  0.28613213  0.67028333  1
  C  C1302  1  0.38053453  0.94422567  0.00361667  1
  C  C1303  1  0.05577433  0.43630887  0.00361667  1
  C  C1304  1  0.56369113  0.61946547  0.00361667  1
  C  C1305  1  0.95279880  0.72244100  0.66305000  1
  C  C1306  1  0.27755900  0.23035780  0.66305000  1
  C  C1307  1  0.76964220  0.04720120  0.66305000  1
  C  C1308  1  0.28613213  0.38910767  0.32971667  1
  C  C1309  1  0.61089233  0.89702447  0.32971667  1
  C  C1310  1  0.10297553  0.71386787  0.32971667  1
  C  C1311  1  0.61946547  0.05577433  0.00000000  1
  C  C1312  1  0.94422567  0.56369113  0.00000000  1
  C  C1313  1  0.43630887  0.38053453  0.00000000  1
  C  C1314  1  0.03378130  0.28044900  0.40756000  1
  C  C1315  1  0.71955100  0.75333230  0.40756000  1
  C  C1316  1  0.24666770  0.96621870  0.40756000  1
  C  C1317  1  0.70044797  0.61378233  0.74089333  1
  C  C1318  1  0.38621767  0.08666563  0.74089333  1
  C  C1319  1  0.91333437  0.29955203  0.74089333  1
  C  C1320  1  0.36711463  0.94711567  0.07422667  1
  C  C1321  1  0.05288433  0.41999897  0.07422667  1
  C  C1322  1  0.58000103  0.63288537  0.07422667  1
  C  C1323  1  0.96621870  0.71955100  0.59244000  1
  C  C1324  1  0.28044900  0.24666770  0.59244000  1
  C  C1325  1  0.75333230  0.03378130  0.59244000  1
  C  C1326  1  0.29955203  0.38621767  0.25910667  1
  C  C1327  1  0.61378233  0.91333437  0.25910667  1
  C  C1328  1  0.08666563  0.70044797  0.25910667  1
  C  C1329  1  0.63288537  0.05288433  0.92577333  1
  C  C1330  1  0.94711567  0.58000103  0.92577333  1
  C  C1331  1  0.41999897  0.36711463  0.92577333  1
  H  H1332  1  0.03604000  0.29320000  0.42173000  1
  H  H1333  1  0.70680000  0.74284000  0.42173000  1
  H  H1334  1  0.25716000  0.96396000  0.42173000  1
  H  H1335  1  0.70270667  0.62653333  0.75506333  1
  H  H1336  1  0.37346667  0.07617333  0.75506333  1
  H  H1337  1  0.92382667  0.29729333  0.75506333  1
  H  H1338  1  0.36937333  0.95986667  0.08839667  1
  H  H1339  1  0.04013333  0.40950667  0.08839667  1
  H  H1340  1  0.59049333  0.63062667  0.08839667  1
  H  H1341  1  0.96396000  0.70680000  0.57827000  1
  H  H1342  1  0.29320000  0.25716000  0.57827000  1
  H  H1343  1  0.74284000  0.03604000  0.57827000  1
  H  H1344  1  0.29729333  0.37346667  0.24493667  1
  H  H1345  1  0.62653333  0.92382667  0.24493667  1
  H  H1346  1  0.07617333  0.70270667  0.24493667  1
  H  H1347  1  0.63062667  0.04013333  0.91160333  1
  H  H1348  1  0.95986667  0.59049333  0.91160333  1
  H  H1349  1  0.40950667  0.36937333  0.91160333  1
  C  C1350  1  0.01702130  0.26441100  0.45706000  1
  C  C1351  1  0.73558900  0.75261030  0.45706000  1
  C  C1352  1  0.24738970  0.98297870  0.45706000  1
  C  C1353  1  0.68368797  0.59774433  0.79039333  1
  C  C1354  1  0.40225567  0.08594363  0.79039333  1
  C  C1355  1  0.91405637  0.31631203  0.79039333  1
  C  C1356  1  0.35035463  0.93107767  0.12372667  1
  C  C1357  1  0.06892233  0.41927697  0.12372667  1
  C  C1358  1  0.58072303  0.64964537  0.12372667  1
  C  C1359  1  0.98297870  0.73558900  0.54294000  1
  C  C1360  1  0.26441100  0.24738970  0.54294000  1
  C  C1361  1  0.75261030  0.01702130  0.54294000  1
  C  C1362  1  0.31631203  0.40225567  0.20960667  1
  C  C1363  1  0.59774433  0.91405637  0.20960667  1
  C  C1364  1  0.08594363  0.68368797  0.20960667  1
  C  C1365  1  0.64964537  0.06892233  0.87627333  1
  C  C1366  1  0.93107767  0.58072303  0.87627333  1
  C  C1367  1  0.41927697  0.35035463  0.87627333  1
  H  H1368  1  0.00817000  0.26655000  0.50612000  1
  H  H1369  1  0.73345000  0.74162000  0.50612000  1
  H  H1370  1  0.25838000  0.99183000  0.50612000  1
  H  H1371  1  0.67483667  0.59988333  0.83945333  1
  H  H1372  1  0.40011667  0.07495333  0.83945333  1
  H  H1373  1  0.92504667  0.32516333  0.83945333  1
  H  H1374  1  0.34150333  0.93321667  0.17278667  1
  H  H1375  1  0.06678333  0.40828667  0.17278667  1
  H  H1376  1  0.59171333  0.65849667  0.17278667  1
  H  H1377  1  0.99183000  0.73345000  0.49388000  1
  H  H1378  1  0.26655000  0.25838000  0.49388000  1
  H  H1379  1  0.74162000  0.00817000  0.49388000  1
  H  H1380  1  0.32516333  0.40011667  0.16054667  1
  H  H1381  1  0.59988333  0.92504667  0.16054667  1
  H  H1382  1  0.07495333  0.67483667  0.16054667  1
  H  H1383  1  0.65849667  0.06678333  0.82721333  1
  H  H1384  1  0.93321667  0.59171333  0.82721333  1
  H  H1385  1  0.40828667  0.34150333  0.82721333  1
  C  C1386  1  0.01304120  0.24596900  0.43686000  1
  C  C1387  1  0.75403100  0.76707220  0.43686000  1
  C  C1388  1  0.23292780  0.98695880  0.43686000  1
  C  C1389  1  0.67970787  0.57930233  0.77019333  1
  C  C1390  1  0.42069767  0.10040553  0.77019333  1
  C  C1391  1  0.89959447  0.32029213  0.77019333  1
  C  C1392  1  0.34637453  0.91263567  0.10352667  1
  C  C1393  1  0.08736433  0.43373887  0.10352667  1
  C  C1394  1  0.56626113  0.65362547  0.10352667  1
  C  C1395  1  0.98695880  0.75403100  0.56314000  1
  C  C1396  1  0.24596900  0.23292780  0.56314000  1
  C  C1397  1  0.76707220  0.01304120  0.56314000  1
  C  C1398  1  0.32029213  0.42069767  0.22980667  1
  C  C1399  1  0.57930233  0.89959447  0.22980667  1
  C  C1400  1  0.10040553  0.67970787  0.22980667  1
  C  C1401  1  0.65362547  0.08736433  0.89647333  1
  C  C1402  1  0.91263567  0.56626113  0.89647333  1
  C  C1403  1  0.43373887  0.34637453  0.89647333  1
  C  C1404  1  0.99415850  0.22873100  0.48206000  1
  C  C1405  1  0.77126900  0.76542750  0.48206000  1
  C  C1406  1  0.23457250  0.00584150  0.48206000  1
  C  C1407  1  0.66082517  0.56206433  0.81539333  1
  C  C1408  1  0.43793567  0.09876083  0.81539333  1
  C  C1409  1  0.90123917  0.33917483  0.81539333  1
  C  C1410  1  0.32749183  0.89539767  0.14872667  1
  C  C1411  1  0.10460233  0.43209417  0.14872667  1
  C  C1412  1  0.56790583  0.67250817  0.14872667  1
  C  C1413  1  0.00584150  0.77126900  0.51794000  1
  C  C1414  1  0.22873100  0.23457250  0.51794000  1
  C  C1415  1  0.76542750  0.99415850  0.51794000  1
  C  C1416  1  0.33917483  0.43793567  0.18460667  1
  C  C1417  1  0.56206433  0.90123917  0.18460667  1
  C  C1418  1  0.09876083  0.66082517  0.18460667  1
  C  C1419  1  0.67250817  0.10460233  0.85127333  1
  C  C1420  1  0.89539767  0.56790583  0.85127333  1
  C  C1421  1  0.43209417  0.32749183  0.85127333  1
  C  C1422  1  0.02677130  0.24307900  0.36785000  1
  C  C1423  1  0.75692100  0.78369230  0.36785000  1
  C  C1424  1  0.21630770  0.97322870  0.36785000  1
  C  C1425  1  0.69343797  0.57641233  0.70118333  1
  C  C1426  1  0.42358767  0.11702563  0.70118333  1
  C  C1427  1  0.88297437  0.30656203  0.70118333  1
  C  C1428  1  0.36010463  0.90974567  0.03451667  1
  C  C1429  1  0.09025433  0.45035897  0.03451667  1
  C  C1430  1  0.54964103  0.63989537  0.03451667  1
  C  C1431  1  0.97322870  0.75692100  0.63215000  1
  C  C1432  1  0.24307900  0.21630770  0.63215000  1
  C  C1433  1  0.78369230  0.02677130  0.63215000  1
  C  C1434  1  0.30656203  0.42358767  0.29881667  1
  C  C1435  1  0.57641233  0.88297437  0.29881667  1
  C  C1436  1  0.11702563  0.69343797  0.29881667  1
  C  C1437  1  0.63989537  0.09025433  0.96548333  1
  C  C1438  1  0.90974567  0.54964103  0.96548333  1
  C  C1439  1  0.45035897  0.36010463  0.96548333  1
  H  H1440  1  0.02448000  0.23029000  0.35396000  1
  H  H1441  1  0.76971000  0.79419000  0.35396000  1
  H  H1442  1  0.20581000  0.97552000  0.35396000  1
  H  H1443  1  0.69114667  0.56362333  0.68729333  1
  H  H1444  1  0.43637667  0.12752333  0.68729333  1
  H  H1445  1  0.87247667  0.30885333  0.68729333  1
  H  H1446  1  0.35781333  0.89695667  0.02062667  1
  H  H1447  1  0.10304333  0.46085667  0.02062667  1
  H  H1448  1  0.53914333  0.64218667  0.02062667  1
  H  H1449  1  0.97552000  0.76971000  0.64604000  1
  H  H1450  1  0.23029000  0.20581000  0.64604000  1
  H  H1451  1  0.79419000  0.02448000  0.64604000  1
  H  H1452  1  0.30885333  0.43637667  0.31270667  1
  H  H1453  1  0.56362333  0.87247667  0.31270667  1
  H  H1454  1  0.12752333  0.69114667  0.31270667  1
  H  H1455  1  0.64218667  0.10304333  0.97937333  1
  H  H1456  1  0.89695667  0.53914333  0.97937333  1
  H  H1457  1  0.46085667  0.35781333  0.97937333  1
  C  C1458  1  0.04342130  0.25872900  0.32095000  1
  C  C1459  1  0.74127100  0.78469230  0.32095000  1
  C  C1460  1  0.21530770  0.95657870  0.32095000  1
  C  C1461  1  0.71008797  0.59206233  0.65428333  1
  C  C1462  1  0.40793767  0.11802563  0.65428333  1
  C  C1463  1  0.88197437  0.28991203  0.65428333  1
  C  C1464  1  0.37675463  0.92539567  0.98761667  1
  C  C1465  1  0.07460433  0.45135897  0.98761667  1
  C  C1466  1  0.54864103  0.62324537  0.98761667  1
  C  C1467  1  0.95657870  0.74127100  0.67905000  1
  C  C1468  1  0.25872900  0.21530770  0.67905000  1
  C  C1469  1  0.78469230  0.04342130  0.67905000  1
  C  C1470  1  0.28991203  0.40793767  0.34571667  1
  C  C1471  1  0.59206233  0.88197437  0.34571667  1
  C  C1472  1  0.11802563  0.71008797  0.34571667  1
  C  C1473  1  0.62324537  0.07460433  0.01238333  1
  C  C1474  1  0.92539567  0.54864103  0.01238333  1
  C  C1475  1  0.45135897  0.37675463  0.01238333  1
  H  H1476  1  0.05258000  0.25653000  0.27612000  1
  H  H1477  1  0.74347000  0.79605000  0.27612000  1
  H  H1478  1  0.20395000  0.94742000  0.27612000  1
  H  H1479  1  0.71924667  0.58986333  0.60945333  1
  H  H1480  1  0.41013667  0.12938333  0.60945333  1
  H  H1481  1  0.87061667  0.28075333  0.60945333  1
  H  H1482  1  0.38591333  0.92319667  0.94278667  1
  H  H1483  1  0.07680333  0.46271667  0.94278667  1
  H  H1484  1  0.53728333  0.61408667  0.94278667  1
  H  H1485  1  0.94742000  0.74347000  0.72388000  1
  H  H1486  1  0.25653000  0.20395000  0.72388000  1
  H  H1487  1  0.79605000  0.05258000  0.72388000  1
  H  H1488  1  0.28075333  0.41013667  0.39054667  1
  H  H1489  1  0.58986333  0.87061667  0.39054667  1
  H  H1490  1  0.12938333  0.71924667  0.39054667  1
  H  H1491  1  0.61408667  0.07680333  0.05721333  1
  H  H1492  1  0.92319667  0.53728333  0.05721333  1
  H  H1493  1  0.46271667  0.38591333  0.05721333  1
  C  C1494  1  0.19816150  0.21882110  0.14649000  1
  C  C1495  1  0.78117890  0.97934040  0.14649000  1
  C  C1496  1  0.02065960  0.80183850  0.14649000  1
  C  C1497  1  0.86482817  0.55215443  0.47982333  1
  C  C1498  1  0.44784557  0.31267373  0.47982333  1
  C  C1499  1  0.68732627  0.13517183  0.47982333  1
  C  C1500  1  0.53149483  0.88548777  0.81315667  1
  C  C1501  1  0.11451223  0.64600707  0.81315667  1
  C  C1502  1  0.35399293  0.46850517  0.81315667  1
  C  C1503  1  0.80183850  0.78117890  0.85351000  1
  C  C1504  1  0.21882110  0.02065960  0.85351000  1
  C  C1505  1  0.97934040  0.19816150  0.85351000  1
  C  C1506  1  0.13517183  0.44784557  0.52017667  1
  C  C1507  1  0.55215443  0.68732627  0.52017667  1
  C  C1508  1  0.31267373  0.86482817  0.52017667  1
  C  C1509  1  0.46850517  0.11451223  0.18684333  1
  C  C1510  1  0.88548777  0.35399293  0.18684333  1
  C  C1511  1  0.64600707  0.53149483  0.18684333  1
  C  C1512  1  0.21534130  0.21585100  0.12717000  1
  C  C1513  1  0.78414900  0.00000000  0.12717000  1
  C  C1514  1  0.00050970  0.78465870  0.12717000  1
  C  C1515  1  0.88200797  0.54918433  0.46050333  1
  C  C1516  1  0.45081567  0.33282363  0.46050333  1
  C  C1517  1  0.66717637  0.11799203  0.46050333  1
  C  C1518  1  0.54867463  0.88251767  0.79383667  1
  C  C1519  1  0.11748233  0.66615697  0.79383667  1
  C  C1520  1  0.33384303  0.45132537  0.79383667  1
  C  C1521  1  0.78465870  0.78414900  0.87283000  1
  C  C1522  1  0.21585100  0.00050970  0.87283000  1
  C  C1523  1  0.00000000  0.21534130  0.87283000  1
  C  C1524  1  0.11799203  0.45081567  0.53949667  1
  C  C1525  1  0.54918433  0.66717637  0.53949667  1
  C  C1526  1  0.33282363  0.88200797  0.53949667  1
  C  C1527  1  0.45132537  0.11748233  0.20616333  1
  C  C1528  1  0.88251767  0.33384303  0.20616333  1
  C  C1529  1  0.66615697  0.54867463  0.20616333  1
  C  C1530  1  0.22330140  0.21798110  0.00787000  1
  C  C1531  1  0.78201890  0.00532030  0.00787000  1
  C  C1532  1  0.99467970  0.77669860  0.00787000  1
  C  C1533  1  0.88996807  0.55131443  0.34120333  1
  C  C1534  1  0.44868557  0.33865363  0.34120333  1
  C  C1535  1  0.66134637  0.11003193  0.34120333  1
  C  C1536  1  0.55663473  0.88464777  0.67453667  1
  C  C1537  1  0.11535223  0.67198697  0.67453667  1
  C  C1538  1  0.32801303  0.44336527  0.67453667  1
  C  C1539  1  0.77669860  0.78201890  0.99213000  1
  C  C1540  1  0.21798110  0.99467970  0.99213000  1
  C  C1541  1  0.00532030  0.22330140  0.99213000  1
  C  C1542  1  0.11003193  0.44868557  0.65879667  1
  C  C1543  1  0.55131443  0.66134637  0.65879667  1
  C  C1544  1  0.33865363  0.88996807  0.65879667  1
  C  C1545  1  0.44336527  0.11535223  0.32546333  1
  C  C1546  1  0.88464777  0.32801303  0.32546333  1
  C  C1547  1  0.67198697  0.55663473  0.32546333  1
  H  H1548  1  0.21808000  0.22141000  0.93656000  1
  H  H1549  1  0.77859000  0.00000000  0.93656000  1
  H  H1550  1  0.00333000  0.78192000  0.93656000  1
  H  H1551  1  0.88474667  0.55474333  0.26989333  1
  H  H1552  1  0.44525667  0.33000333  0.26989333  1
  H  H1553  1  0.66999667  0.11525333  0.26989333  1
  H  H1554  1  0.55141333  0.88807667  0.60322667  1
  H  H1555  1  0.11192333  0.66333667  0.60322667  1
  H  H1556  1  0.33666333  0.44858667  0.60322667  1
  H  H1557  1  0.78192000  0.77859000  0.06344000  1
  H  H1558  1  0.22141000  0.00333000  0.06344000  1
  H  H1559  1  0.00000000  0.21808000  0.06344000  1
  H  H1560  1  0.11525333  0.44525667  0.73010667  1
  H  H1561  1  0.55474333  0.66999667  0.73010667  1
  H  H1562  1  0.33000333  0.88474667  0.73010667  1
  H  H1563  1  0.44858667  0.11192333  0.39677333  1
  H  H1564  1  0.88807667  0.33666333  0.39677333  1
  H  H1565  1  0.66333667  0.55141333  0.39677333  1
  C  C1566  1  0.23934150  0.21512120  0.98834000  1
  C  C1567  1  0.78487880  0.02422030  0.98834000  1
  C  C1568  1  0.97577970  0.76065850  0.98834000  1
  C  C1569  1  0.90600817  0.54845453  0.32167333  1
  C  C1570  1  0.45154547  0.35755363  0.32167333  1
  C  C1571  1  0.64244637  0.09399183  0.32167333  1
  C  C1572  1  0.57267483  0.88178787  0.65500667  1
  C  C1573  1  0.11821213  0.69088697  0.65500667  1
  C  C1574  1  0.30911303  0.42732517  0.65500667  1
  C  C1575  1  0.76065850  0.78487880  0.01166000  1
  C  C1576  1  0.21512120  0.97577970  0.01166000  1
  C  C1577  1  0.02422030  0.23934150  0.01166000  1
  C  C1578  1  0.09399183  0.45154547  0.67832667  1
  C  C1579  1  0.54845453  0.64244637  0.67832667  1
  C  C1580  1  0.35755363  0.90600817  0.67832667  1
  C  C1581  1  0.42732517  0.11821213  0.34499333  1
  C  C1582  1  0.88178787  0.30911303  0.34499333  1
  C  C1583  1  0.69088697  0.57267483  0.34499333  1
  H  H1584  1  0.24529000  0.21724000  0.90564000  1
  H  H1585  1  0.78276000  0.02805000  0.90564000  1
  H  H1586  1  0.97195000  0.75471000  0.90564000  1
  H  H1587  1  0.91195667  0.55057333  0.23897333  1
  H  H1588  1  0.44942667  0.36138333  0.23897333  1
  H  H1589  1  0.63861667  0.08804333  0.23897333  1
  H  H1590  1  0.57862333  0.88390667  0.57230667  1
  H  H1591  1  0.11609333  0.69471667  0.57230667  1
  H  H1592  1  0.30528333  0.42137667  0.57230667  1
  H  H1593  1  0.75471000  0.78276000  0.09436000  1
  H  H1594  1  0.21724000  0.97195000  0.09436000  1
  H  H1595  1  0.02805000  0.24529000  0.09436000  1
  H  H1596  1  0.08804333  0.44942667  0.76102667  1
  H  H1597  1  0.55057333  0.63861667  0.76102667  1
  H  H1598  1  0.36138333  0.91195667  0.76102667  1
  H  H1599  1  0.42137667  0.11609333  0.42769333  1
  H  H1600  1  0.88390667  0.30528333  0.42769333  1
  H  H1601  1  0.69471667  0.57862333  0.42769333  1
  C  C1602  1  0.24618110  0.20924900  0.09115000  1
  C  C1603  1  0.79075100  0.03693210  0.09115000  1
  C  C1604  1  0.96306790  0.75381890  0.09115000  1
  C  C1605  1  0.91284777  0.54258233  0.42448333  1
  C  C1606  1  0.45741767  0.37026543  0.42448333  1
  C  C1607  1  0.62973457  0.08715223  0.42448333  1
  C  C1608  1  0.57951443  0.87591567  0.75781667  1
  C  C1609  1  0.12408433  0.70359877  0.75781667  1
  C  C1610  1  0.29640123  0.42048557  0.75781667  1
  C  C1611  1  0.75381890  0.79075100  0.90885000  1
  C  C1612  1  0.20924900  0.96306790  0.90885000  1
  C  C1613  1  0.03693210  0.24618110  0.90885000  1
  C  C1614  1  0.08715223  0.45741767  0.57551667  1
  C  C1615  1  0.54258233  0.62973457  0.57551667  1
  C  C1616  1  0.37026543  0.91284777  0.57551667  1
  C  C1617  1  0.42048557  0.12408433  0.24218333  1
  C  C1618  1  0.87591567  0.29640123  0.24218333  1
  C  C1619  1  0.70359877  0.57951443  0.24218333  1
  C  C1620  1  0.23862110  0.20786800  0.21326000  1
  C  C1621  1  0.79213200  0.03075310  0.21326000  1
  C  C1622  1  0.96924690  0.76137890  0.21326000  1
  C  C1623  1  0.90528777  0.54120133  0.54659333  1
  C  C1624  1  0.45879867  0.36408643  0.54659333  1
  C  C1625  1  0.63591357  0.09471223  0.54659333  1
  C  C1626  1  0.57195443  0.87453467  0.87992667  1
  C  C1627  1  0.12546533  0.69741977  0.87992667  1
  C  C1628  1  0.30258023  0.42804557  0.87992667  1
  C  C1629  1  0.76137890  0.79213200  0.78674000  1
  C  C1630  1  0.20786800  0.96924690  0.78674000  1
  C  C1631  1  0.03075310  0.23862110  0.78674000  1
  C  C1632  1  0.09471223  0.45879867  0.45340667  1
  C  C1633  1  0.54120133  0.63591357  0.45340667  1
  C  C1634  1  0.36408643  0.90528777  0.45340667  1
  C  C1635  1  0.42804557  0.12546533  0.12007333  1
  C  C1636  1  0.87453467  0.30258023  0.12007333  1
  C  C1637  1  0.69741977  0.57195443  0.12007333  1
  H  H1638  1  0.24401000  0.20477000  0.28512000  1
  H  H1639  1  0.79523000  0.03924000  0.28512000  1
  H  H1640  1  0.96076000  0.75599000  0.28512000  1
  H  H1641  1  0.91067667  0.53810333  0.61845333  1
  H  H1642  1  0.46189667  0.37257333  0.61845333  1
  H  H1643  1  0.62742667  0.08932333  0.61845333  1
  H  H1644  1  0.57734333  0.87143667  0.95178667  1
  H  H1645  1  0.12856333  0.70590667  0.95178667  1
  H  H1646  1  0.29409333  0.42265667  0.95178667  1
  H  H1647  1  0.75599000  0.79523000  0.71488000  1
  H  H1648  1  0.20477000  0.96076000  0.71488000  1
  H  H1649  1  0.03924000  0.24401000  0.71488000  1
  H  H1650  1  0.08932333  0.46189667  0.38154667  1
  H  H1651  1  0.53810333  0.62742667  0.38154667  1
  H  H1652  1  0.37257333  0.91067667  0.38154667  1
  H  H1653  1  0.42265667  0.12856333  0.04821333  1
  H  H1654  1  0.87143667  0.29409333  0.04821333  1
  H  H1655  1  0.70590667  0.57734333  0.04821333  1
  C  C1656  1  0.22292120  0.21105900  0.23116000  1
  C  C1657  1  0.78894100  0.01186220  0.23116000  1
  C  C1658  1  0.98813780  0.77707880  0.23116000  1
  C  C1659  1  0.88958787  0.54439233  0.56449333  1
  C  C1660  1  0.45560767  0.34519553  0.56449333  1
  C  C1661  1  0.65480447  0.11041213  0.56449333  1
  C  C1662  1  0.55625453  0.87772567  0.89782667  1
  C  C1663  1  0.12227433  0.67852887  0.89782667  1
  C  C1664  1  0.32147113  0.44374547  0.89782667  1
  C  C1665  1  0.77707880  0.78894100  0.76884000  1
  C  C1666  1  0.21105900  0.98813780  0.76884000  1
  C  C1667  1  0.01186220  0.22292120  0.76884000  1
  C  C1668  1  0.11041213  0.45560767  0.43550667  1
  C  C1669  1  0.54439233  0.65480447  0.43550667  1
  C  C1670  1  0.34519553  0.88958787  0.43550667  1
  C  C1671  1  0.44374547  0.12227433  0.10217333  1
  C  C1672  1  0.87772567  0.32147113  0.10217333  1
  C  C1673  1  0.67852887  0.55625453  0.10217333  1
  H  H1674  1  0.21754000  0.20988000  0.31490000  1
  H  H1675  1  0.79012000  0.00766000  0.31490000  1
  H  H1676  1  0.99234000  0.78246000  0.31490000  1
  H  H1677  1  0.88420667  0.54321333  0.64823333  1
  H  H1678  1  0.45678667  0.34099333  0.64823333  1
  H  H1679  1  0.65900667  0.11579333  0.64823333  1
  H  H1680  1  0.55087333  0.87654667  0.98156667  1
  H  H1681  1  0.12345333  0.67432667  0.98156667  1
  H  H1682  1  0.32567333  0.44912667  0.98156667  1
  H  H1683  1  0.78246000  0.79012000  0.68510000  1
  H  H1684  1  0.20988000  0.99234000  0.68510000  1
  H  H1685  1  0.00766000  0.21754000  0.68510000  1
  H  H1686  1  0.11579333  0.45678667  0.35176667  1
  H  H1687  1  0.54321333  0.65900667  0.35176667  1
  H  H1688  1  0.34099333  0.88420667  0.35176667  1
  H  H1689  1  0.44912667  0.12345333  0.01843333  1
  H  H1690  1  0.87654667  0.32567333  0.01843333  1
  H  H1691  1  0.67432667  0.55087333  0.01843333  1
  C  C1692  1  0.26056110  0.20268800  0.06535000  1
  C  C1693  1  0.79731200  0.05787310  0.06535000  1
  C  C1694  1  0.94212690  0.73943890  0.06535000  1
  C  C1695  1  0.92722777  0.53602133  0.39868333  1
  C  C1696  1  0.46397867  0.39120643  0.39868333  1
  C  C1697  1  0.60879357  0.07277223  0.39868333  1
  C  C1698  1  0.59389443  0.86935467  0.73201667  1
  C  C1699  1  0.13064533  0.72453977  0.73201667  1
  C  C1700  1  0.27546023  0.40610557  0.73201667  1
  C  C1701  1  0.73943890  0.79731200  0.93465000  1
  C  C1702  1  0.20268800  0.94212690  0.93465000  1
  C  C1703  1  0.05787310  0.26056110  0.93465000  1
  C  C1704  1  0.07277223  0.46397867  0.60131667  1
  C  C1705  1  0.53602133  0.60879357  0.60131667  1
  C  C1706  1  0.39120643  0.92722777  0.60131667  1
  C  C1707  1  0.40610557  0.13064533  0.26798333  1
  C  C1708  1  0.86935467  0.27546023  0.26798333  1
  C  C1709  1  0.72453977  0.59389443  0.26798333  1
  C  C1710  1  0.25416110  0.18841800  0.97065000  1
  C  C1711  1  0.81158200  0.06574310  0.97065000  1
  C  C1712  1  0.93425690  0.74583890  0.97065000  1
  C  C1713  1  0.92082777  0.52175133  0.30398333  1
  C  C1714  1  0.47824867  0.39907643  0.30398333  1
  C  C1715  1  0.60092357  0.07917223  0.30398333  1
  C  C1716  1  0.58749443  0.85508467  0.63731667  1
  C  C1717  1  0.14491533  0.73240977  0.63731667  1
  C  C1718  1  0.26759023  0.41250557  0.63731667  1
  C  C1719  1  0.74583890  0.81158200  0.02935000  1
  C  C1720  1  0.18841800  0.93425690  0.02935000  1
  C  C1721  1  0.06574310  0.25416110  0.02935000  1
  C  C1722  1  0.07917223  0.47824867  0.69601667  1
  C  C1723  1  0.52175133  0.60092357  0.69601667  1
  C  C1724  1  0.39907643  0.92082777  0.69601667  1
  C  C1725  1  0.41250557  0.14491533  0.36268333  1
  C  C1726  1  0.85508467  0.26759023  0.36268333  1
  C  C1727  1  0.73240977  0.58749443  0.36268333  1
  H  H1728  1  0.24210000  0.18433000  0.92864000  1
  H  H1729  1  0.81567000  0.05777000  0.92864000  1
  H  H1730  1  0.94223000  0.75790000  0.92864000  1
  H  H1731  1  0.90876667  0.51766333  0.26197333  1
  H  H1732  1  0.48233667  0.39110333  0.26197333  1
  H  H1733  1  0.60889667  0.09123333  0.26197333  1
  H  H1734  1  0.57543333  0.85099667  0.59530667  1
  H  H1735  1  0.14900333  0.72443667  0.59530667  1
  H  H1736  1  0.27556333  0.42456667  0.59530667  1
  H  H1737  1  0.75790000  0.81567000  0.07136000  1
  H  H1738  1  0.18433000  0.94223000  0.07136000  1
  H  H1739  1  0.05777000  0.24210000  0.07136000  1
  H  H1740  1  0.09123333  0.48233667  0.73802667  1
  H  H1741  1  0.51766333  0.60889667  0.73802667  1
  H  H1742  1  0.39110333  0.90876667  0.73802667  1
  H  H1743  1  0.42456667  0.14900333  0.40469333  1
  H  H1744  1  0.85099667  0.27556333  0.40469333  1
  H  H1745  1  0.72443667  0.57543333  0.40469333  1
  C  C1746  1  0.26528110  0.18002800  0.93675000  1
  C  C1747  1  0.81997200  0.08525310  0.93675000  1
  C  C1748  1  0.91474690  0.73471890  0.93675000  1
  C  C1749  1  0.93194777  0.51336133  0.27008333  1
  C  C1750  1  0.48663867  0.41858643  0.27008333  1
  C  C1751  1  0.58141357  0.06805223  0.27008333  1
  C  C1752  1  0.59861443  0.84669467  0.60341667  1
  C  C1753  1  0.15330533  0.75191977  0.60341667  1
  C  C1754  1  0.24808023  0.40138557  0.60341667  1
  C  C1755  1  0.73471890  0.81997200  0.06325000  1
  C  C1756  1  0.18002800  0.91474690  0.06325000  1
  C  C1757  1  0.08525310  0.26528110  0.06325000  1
  C  C1758  1  0.06805223  0.48663867  0.72991667  1
  C  C1759  1  0.51336133  0.58141357  0.72991667  1
  C  C1760  1  0.41858643  0.93194777  0.72991667  1
  C  C1761  1  0.40138557  0.15330533  0.39658333  1
  C  C1762  1  0.84669467  0.24808023  0.39658333  1
  C  C1763  1  0.75191977  0.59861443  0.39658333  1
  H  H1764  1  0.26188000  0.17175000  0.86338000  1
  H  H1765  1  0.82825000  0.09013000  0.86338000  1
  H  H1766  1  0.90987000  0.73812000  0.86338000  1
  H  H1767  1  0.92854667  0.50508333  0.19671333  1
  H  H1768  1  0.49491667  0.42346333  0.19671333  1
  H  H1769  1  0.57653667  0.07145333  0.19671333  1
  H  H1770  1  0.59521333  0.83841667  0.53004667  1
  H  H1771  1  0.16158333  0.75679667  0.53004667  1
  H  H1772  1  0.24320333  0.40478667  0.53004667  1
  H  H1773  1  0.73812000  0.82825000  0.13662000  1
  H  H1774  1  0.17175000  0.90987000  0.13662000  1
  H  H1775  1  0.09013000  0.26188000  0.13662000  1
  H  H1776  1  0.07145333  0.49491667  0.80328667  1
  H  H1777  1  0.50508333  0.57653667  0.80328667  1
  H  H1778  1  0.42346333  0.92854667  0.80328667  1
  H  H1779  1  0.40478667  0.16158333  0.46995333  1
  H  H1780  1  0.83841667  0.24320333  0.46995333  1
  H  H1781  1  0.75679667  0.59521333  0.46995333  1
  C  C1782  1  0.28094110  0.18374800  0.00895000  1
  C  C1783  1  0.81625200  0.09719310  0.00895000  1
  C  C1784  1  0.90280690  0.71905890  0.00895000  1
  C  C1785  1  0.94760777  0.51708133  0.34228333  1
  C  C1786  1  0.48291867  0.43052643  0.34228333  1
  C  C1787  1  0.56947357  0.05239223  0.34228333  1
  C  C1788  1  0.61427443  0.85041467  0.67561667  1
  C  C1789  1  0.14958533  0.76385977  0.67561667  1
  C  C1790  1  0.23614023  0.38572557  0.67561667  1
  C  C1791  1  0.71905890  0.81625200  0.99105000  1
  C  C1792  1  0.18374800  0.90280690  0.99105000  1
  C  C1793  1  0.09719310  0.28094110  0.99105000  1
  C  C1794  1  0.05239223  0.48291867  0.65771667  1
  C  C1795  1  0.51708133  0.56947357  0.65771667  1
  C  C1796  1  0.43052643  0.94760777  0.65771667  1
  C  C1797  1  0.38572557  0.14958533  0.32438333  1
  C  C1798  1  0.85041467  0.23614023  0.32438333  1
  C  C1799  1  0.76385977  0.61427443  0.32438333  1
  H  H1800  1  0.28808000  0.17743000  0.98903000  1
  H  H1801  1  0.82257000  0.11065000  0.98903000  1
  H  H1802  1  0.88935000  0.71192000  0.98903000  1
  H  H1803  1  0.95474667  0.51076333  0.32236333  1
  H  H1804  1  0.48923667  0.44398333  0.32236333  1
  H  H1805  1  0.55601667  0.04525333  0.32236333  1
  H  H1806  1  0.62141333  0.84409667  0.65569667  1
  H  H1807  1  0.15590333  0.77731667  0.65569667  1
  H  H1808  1  0.22268333  0.37858667  0.65569667  1
  H  H1809  1  0.71192000  0.82257000  0.01097000  1
  H  H1810  1  0.17743000  0.88935000  0.01097000  1
  H  H1811  1  0.11065000  0.28808000  0.01097000  1
  H  H1812  1  0.04525333  0.48923667  0.67763667  1
  H  H1813  1  0.51076333  0.55601667  0.67763667  1
  H  H1814  1  0.44398333  0.95474667  0.67763667  1
  H  H1815  1  0.37858667  0.15590333  0.34430333  1
  H  H1816  1  0.84409667  0.22268333  0.34430333  1
  H  H1817  1  0.77731667  0.62141333  0.34430333  1
  C  C1818  1  0.28677110  0.19691800  0.11375000  1
  C  C1819  1  0.80308200  0.08985310  0.11375000  1
  C  C1820  1  0.91014690  0.71322890  0.11375000  1
  C  C1821  1  0.95343777  0.53025133  0.44708333  1
  C  C1822  1  0.46974867  0.42318643  0.44708333  1
  C  C1823  1  0.57681357  0.04656223  0.44708333  1
  C  C1824  1  0.62010443  0.86358467  0.78041667  1
  C  C1825  1  0.13641533  0.75651977  0.78041667  1
  C  C1826  1  0.24348023  0.37989557  0.78041667  1
  C  C1827  1  0.71322890  0.80308200  0.88625000  1
  C  C1828  1  0.19691800  0.91014690  0.88625000  1
  C  C1829  1  0.08985310  0.28677110  0.88625000  1
  C  C1830  1  0.04656223  0.46974867  0.55291667  1
  C  C1831  1  0.53025133  0.57681357  0.55291667  1
  C  C1832  1  0.42318643  0.95343777  0.55291667  1
  C  C1833  1  0.37989557  0.13641533  0.21958333  1
  C  C1834  1  0.86358467  0.24348023  0.21958333  1
  C  C1835  1  0.75651977  0.62010443  0.21958333  1
  C  C1836  1  0.27816110  0.20833800  0.13045000  1
  C  C1837  1  0.79166200  0.06982310  0.13045000  1
  C  C1838  1  0.93017690  0.72183890  0.13045000  1
  C  C1839  1  0.94482777  0.54167133  0.46378333  1
  C  C1840  1  0.45832867  0.40315643  0.46378333  1
  C  C1841  1  0.59684357  0.05517223  0.46378333  1
  C  C1842  1  0.61149443  0.87500467  0.79711667  1
  C  C1843  1  0.12499533  0.73648977  0.79711667  1
  C  C1844  1  0.26351023  0.38850557  0.79711667  1
  C  C1845  1  0.72183890  0.79166200  0.86955000  1
  C  C1846  1  0.20833800  0.93017690  0.86955000  1
  C  C1847  1  0.06982310  0.27816110  0.86955000  1
  C  C1848  1  0.05517223  0.45832867  0.53621667  1
  C  C1849  1  0.54167133  0.59684357  0.53621667  1
  C  C1850  1  0.40315643  0.94482777  0.53621667  1
  C  C1851  1  0.38850557  0.12499533  0.20288333  1
  C  C1852  1  0.87500467  0.26351023  0.20288333  1
  C  C1853  1  0.73648977  0.61149443  0.20288333  1
  C  C1854  1  0.28928110  0.22665800  0.20345000  1
  C  C1855  1  0.77334200  0.06262310  0.20345000  1
  C  C1856  1  0.93737690  0.71071890  0.20345000  1
  C  C1857  1  0.95594777  0.55999133  0.53678333  1
  C  C1858  1  0.44000867  0.39595643  0.53678333  1
  C  C1859  1  0.60404357  0.04405223  0.53678333  1
  C  C1860  1  0.62261443  0.89332467  0.87011667  1
  C  C1861  1  0.10667533  0.72928977  0.87011667  1
  C  C1862  1  0.27071023  0.37738557  0.87011667  1
  C  C1863  1  0.71071890  0.77334200  0.79655000  1
  C  C1864  1  0.22665800  0.93737690  0.79655000  1
  C  C1865  1  0.06262310  0.28928110  0.79655000  1
  C  C1866  1  0.04405223  0.44000867  0.46321667  1
  C  C1867  1  0.55999133  0.60404357  0.46321667  1
  C  C1868  1  0.39595643  0.95594777  0.46321667  1
  C  C1869  1  0.37738557  0.10667533  0.12988333  1
  C  C1870  1  0.89332467  0.27071023  0.12988333  1
  C  C1871  1  0.72928977  0.62261443  0.12988333  1
  C  C1872  1  0.28454120  0.24144900  0.19076000  1
  C  C1873  1  0.75855100  0.04309220  0.19076000  1
  C  C1874  1  0.95690780  0.71545880  0.19076000  1
  C  C1875  1  0.95120787  0.57478233  0.52409333  1
  C  C1876  1  0.42521767  0.37642553  0.52409333  1
  C  C1877  1  0.62357447  0.04879213  0.52409333  1
  C  C1878  1  0.61787453  0.90811567  0.85742667  1
  C  C1879  1  0.09188433  0.70975887  0.85742667  1
  C  C1880  1  0.29024113  0.38212547  0.85742667  1
  C  C1881  1  0.71545880  0.75855100  0.80924000  1
  C  C1882  1  0.24144900  0.95690780  0.80924000  1
  C  C1883  1  0.04309220  0.28454120  0.80924000  1
  C  C1884  1  0.04879213  0.42521767  0.47590667  1
  C  C1885  1  0.57478233  0.62357447  0.47590667  1
  C  C1886  1  0.37642553  0.95120787  0.47590667  1
  C  C1887  1  0.38212547  0.09188433  0.14257333  1
  C  C1888  1  0.90811567  0.29024113  0.14257333  1
  C  C1889  1  0.70975887  0.61787453  0.14257333  1
  H  H1890  1  0.27320000  0.23883000  0.14411000  1
  H  H1891  1  0.76117000  0.03437000  0.14411000  1
  H  H1892  1  0.96563000  0.72680000  0.14411000  1
  H  H1893  1  0.93986667  0.57216333  0.47744333  1
  H  H1894  1  0.42783667  0.36770333  0.47744333  1
  H  H1895  1  0.63229667  0.06013333  0.47744333  1
  H  H1896  1  0.60653333  0.90549667  0.81077667  1
  H  H1897  1  0.09450333  0.70103667  0.81077667  1
  H  H1898  1  0.29896333  0.39346667  0.81077667  1
  H  H1899  1  0.72680000  0.76117000  0.85589000  1
  H  H1900  1  0.23883000  0.96563000  0.85589000  1
  H  H1901  1  0.03437000  0.27320000  0.85589000  1
  H  H1902  1  0.06013333  0.42783667  0.52255667  1
  H  H1903  1  0.57216333  0.63229667  0.52255667  1
  H  H1904  1  0.36770333  0.93986667  0.52255667  1
  H  H1905  1  0.39346667  0.09450333  0.18922333  1
  H  H1906  1  0.90549667  0.29896333  0.18922333  1
  H  H1907  1  0.70103667  0.60653333  0.18922333  1
  C  C1908  1  0.29583130  0.25944100  0.24367000  1
  C  C1909  1  0.74055900  0.03639030  0.24367000  1
  C  C1910  1  0.96360970  0.70416870  0.24367000  1
  C  C1911  1  0.96249797  0.59277433  0.57700333  1
  C  C1912  1  0.40722567  0.36972363  0.57700333  1
  C  C1913  1  0.63027637  0.03750203  0.57700333  1
  C  C1914  1  0.62916463  0.92610767  0.91033667  1
  C  C1915  1  0.07389233  0.70305697  0.91033667  1
  C  C1916  1  0.29694303  0.37083537  0.91033667  1
  C  C1917  1  0.70416870  0.74055900  0.75633000  1
  C  C1918  1  0.25944100  0.96360970  0.75633000  1
  C  C1919  1  0.03639030  0.29583130  0.75633000  1
  C  C1920  1  0.03750203  0.40722567  0.42299667  1
  C  C1921  1  0.59277433  0.63027637  0.42299667  1
  C  C1922  1  0.36972363  0.96249797  0.42299667  1
  C  C1923  1  0.37083537  0.07389233  0.08966333  1
  C  C1924  1  0.92610767  0.29694303  0.08966333  1
  C  C1925  1  0.70305697  0.62916463  0.08966333  1
  H  H1926  1  0.29198000  0.26893000  0.23624000  1
  H  H1927  1  0.73107000  0.02305000  0.23624000  1
  H  H1928  1  0.97695000  0.70802000  0.23624000  1
  H  H1929  1  0.95864667  0.60226333  0.56957333  1
  H  H1930  1  0.39773667  0.35638333  0.56957333  1
  H  H1931  1  0.64361667  0.04135333  0.56957333  1
  H  H1932  1  0.62531333  0.93559667  0.90290667  1
  H  H1933  1  0.06440333  0.68971667  0.90290667  1
  H  H1934  1  0.31028333  0.37468667  0.90290667  1
  H  H1935  1  0.70802000  0.73107000  0.76376000  1
  H  H1936  1  0.26893000  0.97695000  0.76376000  1
  H  H1937  1  0.02305000  0.29198000  0.76376000  1
  H  H1938  1  0.04135333  0.39773667  0.43042667  1
  H  H1939  1  0.60226333  0.64361667  0.43042667  1
  H  H1940  1  0.35638333  0.95864667  0.43042667  1
  H  H1941  1  0.37468667  0.06440333  0.09709333  1
  H  H1942  1  0.93559667  0.31028333  0.09709333  1
  H  H1943  1  0.68971667  0.62531333  0.09709333  1
  C  C1944  1  0.31293130  0.26394900  0.30807000  1
  C  C1945  1  0.73605100  0.04898230  0.30807000  1
  C  C1946  1  0.95101770  0.68706870  0.30807000  1
  C  C1947  1  0.97959797  0.59728233  0.64140333  1
  C  C1948  1  0.40271767  0.38231563  0.64140333  1
  C  C1949  1  0.61768437  0.02040203  0.64140333  1
  C  C1950  1  0.64626463  0.93061567  0.97473667  1
  C  C1951  1  0.06938433  0.71564897  0.97473667  1
  C  C1952  1  0.28435103  0.35373537  0.97473667  1
  C  C1953  1  0.68706870  0.73605100  0.69193000  1
  C  C1954  1  0.26394900  0.95101770  0.69193000  1
  C  C1955  1  0.04898230  0.31293130  0.69193000  1
  C  C1956  1  0.02040203  0.40271767  0.35859667  1
  C  C1957  1  0.59728233  0.61768437  0.35859667  1
  C  C1958  1  0.38231563  0.97959797  0.35859667  1
  C  C1959  1  0.35373537  0.06938433  0.02526333  1
  C  C1960  1  0.93061567  0.28435103  0.02526333  1
  C  C1961  1  0.71564897  0.64626463  0.02526333  1
  H  H1962  1  0.32073000  0.27644000  0.34495000  1
  H  H1963  1  0.72356000  0.04429000  0.34495000  1
  H  H1964  1  0.95571000  0.67927000  0.34495000  1
  H  H1965  1  0.98739667  0.60977333  0.67828333  1
  H  H1966  1  0.39022667  0.37762333  0.67828333  1
  H  H1967  1  0.62237667  0.01260333  0.67828333  1
  H  H1968  1  0.65406333  0.94310667  0.01161667  1
  H  H1969  1  0.05689333  0.71095667  0.01161667  1
  H  H1970  1  0.28904333  0.34593667  0.01161667  1
  H  H1971  1  0.67927000  0.72356000  0.65505000  1
  H  H1972  1  0.27644000  0.95571000  0.65505000  1
  H  H1973  1  0.04429000  0.32073000  0.65505000  1
  H  H1974  1  0.01260333  0.39022667  0.32171667  1
  H  H1975  1  0.60977333  0.62237667  0.32171667  1
  H  H1976  1  0.37762333  0.98739667  0.32171667  1
  H  H1977  1  0.34593667  0.05689333  0.98838333  1
  H  H1978  1  0.94310667  0.28904333  0.98838333  1
  H  H1979  1  0.71095667  0.65406333  0.98838333  1
  C  C1980  1  0.31859120  0.24971900  0.31816000  1
  C  C1981  1  0.75028100  0.06887220  0.31816000  1
  C  C1982  1  0.93112780  0.68140880  0.31816000  1
  C  C1983  1  0.98525787  0.58305233  0.65149333  1
  C  C1984  1  0.41694767  0.40220553  0.65149333  1
  C  C1985  1  0.59779447  0.01474213  0.65149333  1
  C  C1986  1  0.65192453  0.91638567  0.98482667  1
  C  C1987  1  0.08361433  0.73553887  0.98482667  1
  C  C1988  1  0.26446113  0.34807547  0.98482667  1
  C  C1989  1  0.68140880  0.75028100  0.68184000  1
  C  C1990  1  0.24971900  0.93112780  0.68184000  1
  C  C1991  1  0.06887220  0.31859120  0.68184000  1
  C  C1992  1  0.01474213  0.41694767  0.34850667  1
  C  C1993  1  0.58305233  0.59779447  0.34850667  1
  C  C1994  1  0.40220553  0.98525787  0.34850667  1
  C  C1995  1  0.34807547  0.08361433  0.01517333  1
  C  C1996  1  0.91638567  0.26446113  0.01517333  1
  C  C1997  1  0.73553887  0.65192453  0.01517333  1
  C  C1998  1  0.33844120  0.25682800  0.37066000  1
  C  C1999  1  0.74317200  0.08161320  0.37066000  1
  C  C2000  1  0.91838680  0.66155880  0.37066000  1
  C  C2001  1  0.00510787  0.59016133  0.70399333  1
  C  C2002  1  0.40983867  0.41494653  0.70399333  1
  C  C2003  1  0.58505347  0.99489213  0.70399333  1
  C  C2004  1  0.67177453  0.92349467  0.03732667  1
  C  C2005  1  0.07650533  0.74827987  0.03732667  1
  C  C2006  1  0.25172013  0.32822547  0.03732667  1
  C  C2007  1  0.66155880  0.74317200  0.62934000  1
  C  C2008  1  0.25682800  0.91838680  0.62934000  1
  C  C2009  1  0.08161320  0.33844120  0.62934000  1
  C  C2010  1  0.99489213  0.40983867  0.29600667  1
  C  C2011  1  0.59016133  0.58505347  0.29600667  1
  C  C2012  1  0.41494653  0.00510787  0.29600667  1
  C  C2013  1  0.32822547  0.07650533  0.96267333  1
  C  C2014  1  0.92349467  0.25172013  0.96267333  1
  C  C2015  1  0.74827987  0.67177453  0.96267333  1
  C  C2016  1  0.34328120  0.26333800  0.50166000  1
  C  C2017  1  0.73666200  0.07994320  0.50166000  1
  C  C2018  1  0.92005680  0.65671880  0.50166000  1
  C  C2019  1  0.00994787  0.59667133  0.83499333  1
  C  C2020  1  0.40332867  0.41327653  0.83499333  1
  C  C2021  1  0.58672347  0.99005213  0.83499333  1
  C  C2022  1  0.67661453  0.93000467  0.16832667  1
  C  C2023  1  0.06999533  0.74660987  0.16832667  1
  C  C2024  1  0.25339013  0.32338547  0.16832667  1
  C  C2025  1  0.65671880  0.73666200  0.49834000  1
  C  C2026  1  0.26333800  0.92005680  0.49834000  1
  C  C2027  1  0.07994320  0.34328120  0.49834000  1
  C  C2028  1  0.99005213  0.40332867  0.16500667  1
  C  C2029  1  0.59667133  0.58672347  0.16500667  1
  C  C2030  1  0.41327653  0.00994787  0.16500667  1
  C  C2031  1  0.32338547  0.06999533  0.83167333  1
  C  C2032  1  0.93000467  0.25339013  0.83167333  1
  C  C2033  1  0.74660987  0.67661453  0.83167333  1
  H  H2034  1  0.33371000  0.26349000  0.55572000  1
  H  H2035  1  0.73651000  0.07022000  0.55572000  1
  H  H2036  1  0.92978000  0.66629000  0.55572000  1
  H  H2037  1  0.00037667  0.59682333  0.88905333  1
  H  H2038  1  0.40317667  0.40355333  0.88905333  1
  H  H2039  1  0.59644667  0.00000000  0.88905333  1
  H  H2040  1  0.66704333  0.93015667  0.22238667  1
  H  H2041  1  0.06984333  0.73688667  0.22238667  1
  H  H2042  1  0.26311333  0.33295667  0.22238667  1
  H  H2043  1  0.66629000  0.73651000  0.44428000  1
  H  H2044  1  0.26349000  0.92978000  0.44428000  1
  H  H2045  1  0.07022000  0.33371000  0.44428000  1
  H  H2046  1  0.00000000  0.40317667  0.11094667  1
  H  H2047  1  0.59682333  0.59644667  0.11094667  1
  H  H2048  1  0.40355333  0.00037667  0.11094667  1
  H  H2049  1  0.33295667  0.06984333  0.77761333  1
  H  H2050  1  0.93015667  0.26311333  0.77761333  1
  H  H2051  1  0.73688667  0.66704333  0.77761333  1
  C  C2052  1  0.36106120  0.26923800  0.54986000  1
  C  C2053  1  0.73076200  0.09182320  0.54986000  1
  C  C2054  1  0.90817680  0.63893880  0.54986000  1
  C  C2055  1  0.02772787  0.60257133  0.88319333  1
  C  C2056  1  0.39742867  0.42515653  0.88319333  1
  C  C2057  1  0.57484347  0.97227213  0.88319333  1
  C  C2058  1  0.69439453  0.93590467  0.21652667  1
  C  C2059  1  0.06409533  0.75848987  0.21652667  1
  C  C2060  1  0.24151013  0.30560547  0.21652667  1
  C  C2061  1  0.63893880  0.73076200  0.45014000  1
  C  C2062  1  0.26923800  0.90817680  0.45014000  1
  C  C2063  1  0.09182320  0.36106120  0.45014000  1
  C  C2064  1  0.97227213  0.39742867  0.11680667  1
  C  C2065  1  0.60257133  0.57484347  0.11680667  1
  C  C2066  1  0.42515653  0.02772787  0.11680667  1
  C  C2067  1  0.30560547  0.06409533  0.78347333  1
  C  C2068  1  0.93590467  0.24151013  0.78347333  1
  C  C2069  1  0.75848987  0.69439453  0.78347333  1
  H  H2070  1  0.36373000  0.27331000  0.63752000  1
  H  H2071  1  0.72669000  0.09042000  0.63752000  1
  H  H2072  1  0.90958000  0.63627000  0.63752000  1
  H  H2073  1  0.03039667  0.60664333  0.97085333  1
  H  H2074  1  0.39335667  0.42375333  0.97085333  1
  H  H2075  1  0.57624667  0.96960333  0.97085333  1
  H  H2076  1  0.69706333  0.93997667  0.30418667  1
  H  H2077  1  0.06002333  0.75708667  0.30418667  1
  H  H2078  1  0.24291333  0.30293667  0.30418667  1
  H  H2079  1  0.63627000  0.72669000  0.36248000  1
  H  H2080  1  0.27331000  0.90958000  0.36248000  1
  H  H2081  1  0.09042000  0.36373000  0.36248000  1
  H  H2082  1  0.96960333  0.39335667  0.02914667  1
  H  H2083  1  0.60664333  0.57624667  0.02914667  1
  H  H2084  1  0.42375333  0.03039667  0.02914667  1
  H  H2085  1  0.30293667  0.06002333  0.69581333  1
  H  H2086  1  0.93997667  0.24291333  0.69581333  1
  H  H2087  1  0.75708667  0.69706333  0.69581333  1
  C  C2088  1  0.37568110  0.26950700  0.47415000  1
  C  C2089  1  0.73049300  0.10617410  0.47415000  1
  C  C2090  1  0.89382590  0.62431890  0.47415000  1
  C  C2091  1  0.04234777  0.60284033  0.80748333  1
  C  C2092  1  0.39715967  0.43950743  0.80748333  1
  C  C2093  1  0.56049257  0.95765223  0.80748333  1
  C  C2094  1  0.70901443  0.93617367  0.14081667  1
  C  C2095  1  0.06382633  0.77284077  0.14081667  1
  C  C2096  1  0.22715923  0.29098557  0.14081667  1
  C  C2097  1  0.62431890  0.73049300  0.52585000  1
  C  C2098  1  0.26950700  0.89382590  0.52585000  1
  C  C2099  1  0.10617410  0.37568110  0.52585000  1
  C  C2100  1  0.95765223  0.39715967  0.19251667  1
  C  C2101  1  0.60284033  0.56049257  0.19251667  1
  C  C2102  1  0.43950743  0.04234777  0.19251667  1
  C  C2103  1  0.29098557  0.06382633  0.85918333  1
  C  C2104  1  0.93617367  0.22715923  0.85918333  1
  C  C2105  1  0.77284077  0.70901443  0.85918333  1
  C  C2106  1  0.39562130  0.27604800  0.52376000  1
  C  C2107  1  0.72395200  0.11957330  0.52376000  1
  C  C2108  1  0.88042670  0.60437870  0.52376000  1
  C  C2109  1  0.06228797  0.60938133  0.85709333  1
  C  C2110  1  0.39061867  0.45290663  0.85709333  1
  C  C2111  1  0.54709337  0.93771203  0.85709333  1
  C  C2112  1  0.72895463  0.94271467  0.19042667  1
  C  C2113  1  0.05728533  0.78623997  0.19042667  1
  C  C2114  1  0.21376003  0.27104537  0.19042667  1
  C  C2115  1  0.60437870  0.72395200  0.47624000  1
  C  C2116  1  0.27604800  0.88042670  0.47624000  1
  C  C2117  1  0.11957330  0.39562130  0.47624000  1
  C  C2118  1  0.93771203  0.39061867  0.14290667  1
  C  C2119  1  0.60938133  0.54709337  0.14290667  1
  C  C2120  1  0.45290663  0.06228797  0.14290667  1
  C  C2121  1  0.27104537  0.05728533  0.80957333  1
  C  C2122  1  0.94271467  0.21376003  0.80957333  1
  C  C2123  1  0.78623997  0.72895463  0.80957333  1
  C  C2124  1  0.37095120  0.26335800  0.34455000  1
  C  C2125  1  0.73664200  0.10759320  0.34455000  1
  C  C2126  1  0.89240680  0.62904880  0.34455000  1
  C  C2127  1  0.03761787  0.59669133  0.67788333  1
  C  C2128  1  0.40330867  0.44092653  0.67788333  1
  C  C2129  1  0.55907347  0.96238213  0.67788333  1
  C  C2130  1  0.70428453  0.93002467  0.01121667  1
  C  C2131  1  0.06997533  0.77425987  0.01121667  1
  C  C2132  1  0.22574013  0.29571547  0.01121667  1
  C  C2133  1  0.62904880  0.73664200  0.65545000  1
  C  C2134  1  0.26335800  0.89240680  0.65545000  1
  C  C2135  1  0.10759320  0.37095120  0.65545000  1
  C  C2136  1  0.96238213  0.40330867  0.32211667  1
  C  C2137  1  0.59669133  0.55907347  0.32211667  1
  C  C2138  1  0.44092653  0.03761787  0.32211667  1
  C  C2139  1  0.29571547  0.06997533  0.98878333  1
  C  C2140  1  0.93002467  0.22574013  0.98878333  1
  C  C2141  1  0.77425987  0.70428453  0.98878333  1
  H  H2142  1  0.38069000  0.26353000  0.29033000  1
  H  H2143  1  0.73647000  0.11716000  0.29033000  1
  H  H2144  1  0.88284000  0.61931000  0.29033000  1
  H  H2145  1  0.04735667  0.59686333  0.62366333  1
  H  H2146  1  0.40313667  0.45049333  0.62366333  1
  H  H2147  1  0.54950667  0.95264333  0.62366333  1
  H  H2148  1  0.71402333  0.93019667  0.95699667  1
  H  H2149  1  0.06980333  0.78382667  0.95699667  1
  H  H2150  1  0.21617333  0.28597667  0.95699667  1
  H  H2151  1  0.61931000  0.73647000  0.70967000  1
  H  H2152  1  0.26353000  0.88284000  0.70967000  1
  H  H2153  1  0.11716000  0.38069000  0.70967000  1
  H  H2154  1  0.95264333  0.40313667  0.37633667  1
  H  H2155  1  0.59686333  0.54950667  0.37633667  1
  H  H2156  1  0.45049333  0.04735667  0.37633667  1
  H  H2157  1  0.28597667  0.06980333  0.04300333  1
  H  H2158  1  0.93019667  0.21617333  0.04300333  1
  H  H2159  1  0.78382667  0.71402333  0.04300333  1
  C  C2160  1  0.35274110  0.25708800  0.29326000  1
  C  C2161  1  0.74291200  0.09565310  0.29326000  1
  C  C2162  1  0.90434690  0.64725890  0.29326000  1
  C  C2163  1  0.01940777  0.59042133  0.62659333  1
  C  C2164  1  0.40957867  0.42898643  0.62659333  1
  C  C2165  1  0.57101357  0.98059223  0.62659333  1
  C  C2166  1  0.68607443  0.92375467  0.95992667  1
  C  C2167  1  0.07624533  0.76231977  0.95992667  1
  C  C2168  1  0.23768023  0.31392557  0.95992667  1
  C  C2169  1  0.64725890  0.74291200  0.70674000  1
  C  C2170  1  0.25708800  0.90434690  0.70674000  1
  C  C2171  1  0.09565310  0.35274110  0.70674000  1
  C  C2172  1  0.98059223  0.40957867  0.37340667  1
  C  C2173  1  0.59042133  0.57101357  0.37340667  1
  C  C2174  1  0.42898643  0.01940777  0.37340667  1
  C  C2175  1  0.31392557  0.07624533  0.04007333  1
  C  C2176  1  0.92375467  0.23768023  0.04007333  1
  C  C2177  1  0.76231977  0.68607443  0.04007333  1
  H  H2178  1  0.35006000  0.25299000  0.20545000  1
  H  H2179  1  0.74701000  0.09707000  0.20545000  1
  H  H2180  1  0.90293000  0.64994000  0.20545000  1
  H  H2181  1  0.01672667  0.58632333  0.53878333  1
  H  H2182  1  0.41367667  0.43040333  0.53878333  1
  H  H2183  1  0.56959667  0.98327333  0.53878333  1
  H  H2184  1  0.68339333  0.91965667  0.87211667  1
  H  H2185  1  0.08034333  0.76373667  0.87211667  1
  H  H2186  1  0.23626333  0.31660667  0.87211667  1
  H  H2187  1  0.64994000  0.74701000  0.79455000  1
  H  H2188  1  0.25299000  0.90293000  0.79455000  1
  H  H2189  1  0.09707000  0.35006000  0.79455000  1
  H  H2190  1  0.98327333  0.41367667  0.46121667  1
  H  H2191  1  0.58632333  0.56959667  0.46121667  1
  H  H2192  1  0.43040333  0.01672667  0.46121667  1
  H  H2193  1  0.31660667  0.08034333  0.12788333  1
  H  H2194  1  0.91965667  0.23626333  0.12788333  1
  H  H2195  1  0.76373667  0.68339333  0.12788333  1
  C  C2196  1  0.30644110  0.23087800  0.26785000  1
  C  C2197  1  0.76912200  0.07556310  0.26785000  1
  C  C2198  1  0.92443690  0.69355890  0.26785000  1
  C  C2199  1  0.97310777  0.56421133  0.60118333  1
  C  C2200  1  0.43578867  0.40889643  0.60118333  1
  C  C2201  1  0.59110357  0.02689223  0.60118333  1
  C  C2202  1  0.63977443  0.89754467  0.93451667  1
  C  C2203  1  0.10245533  0.74222977  0.93451667  1
  C  C2204  1  0.25777023  0.36022557  0.93451667  1
  C  C2205  1  0.69355890  0.76912200  0.73215000  1
  C  C2206  1  0.23087800  0.92443690  0.73215000  1
  C  C2207  1  0.07556310  0.30644110  0.73215000  1
  C  C2208  1  0.02689223  0.43578867  0.39881667  1
  C  C2209  1  0.56421133  0.59110357  0.39881667  1
  C  C2210  1  0.40889643  0.97310777  0.39881667  1
  C  C2211  1  0.36022557  0.10245533  0.06548333  1
  C  C2212  1  0.89754467  0.25777023  0.06548333  1
  C  C2213  1  0.74222977  0.63977443  0.06548333  1
  C  C2214  1  0.31124110  0.21533800  0.28535000  1
  C  C2215  1  0.78466200  0.09590310  0.28535000  1
  C  C2216  1  0.90409690  0.68875890  0.28535000  1
  C  C2217  1  0.97790777  0.54867133  0.61868333  1
  C  C2218  1  0.45132867  0.42923643  0.61868333  1
  C  C2219  1  0.57076357  0.02209223  0.61868333  1
  C  C2220  1  0.64457443  0.88200467  0.95201667  1
  C  C2221  1  0.11799533  0.76256977  0.95201667  1
  C  C2222  1  0.23743023  0.35542557  0.95201667  1
  C  C2223  1  0.68875890  0.78466200  0.71465000  1
  C  C2224  1  0.21533800  0.90409690  0.71465000  1
  C  C2225  1  0.09590310  0.31124110  0.71465000  1
  C  C2226  1  0.02209223  0.45132867  0.38131667  1
  C  C2227  1  0.54867133  0.57076357  0.38131667  1
  C  C2228  1  0.42923643  0.97790777  0.38131667  1
  C  C2229  1  0.35542557  0.11799533  0.04798333  1
  C  C2230  1  0.88200467  0.23743023  0.04798333  1
  C  C2231  1  0.76256977  0.64457443  0.04798333  1
  C  C2232  1  0.32360110  0.21603800  0.38526000  1
  C  C2233  1  0.78396200  0.10756310  0.38526000  1
  C  C2234  1  0.89243690  0.67639890  0.38526000  1
  C  C2235  1  0.99026777  0.54937133  0.71859333  1
  C  C2236  1  0.45062867  0.44089643  0.71859333  1
  C  C2237  1  0.55910357  0.00973223  0.71859333  1
  C  C2238  1  0.65693443  0.88270467  0.05192667  1
  C  C2239  1  0.11729533  0.77422977  0.05192667  1
  C  C2240  1  0.22577023  0.34306557  0.05192667  1
  C  C2241  1  0.67639890  0.78396200  0.61474000  1
  C  C2242  1  0.21603800  0.89243690  0.61474000  1
  C  C2243  1  0.10756310  0.32360110  0.61474000  1
  C  C2244  1  0.00973223  0.45062867  0.28140667  1
  C  C2245  1  0.54937133  0.55910357  0.28140667  1
  C  C2246  1  0.44089643  0.99026777  0.28140667  1
  C  C2247  1  0.34306557  0.11729533  0.94807333  1
  C  C2248  1  0.88270467  0.22577023  0.94807333  1
  C  C2249  1  0.77422977  0.65693443  0.94807333  1
  H  H2250  1  0.32901000  0.22666000  0.44372000  1
  H  H2251  1  0.77334000  0.10235000  0.44372000  1
  H  H2252  1  0.89765000  0.67099000  0.44372000  1
  H  H2253  1  0.00000000  0.55999333  0.77705333  1
  H  H2254  1  0.44000667  0.43568333  0.77705333  1
  H  H2255  1  0.56431667  0.00432333  0.77705333  1
  H  H2256  1  0.66234333  0.89332667  0.11038667  1
  H  H2257  1  0.10667333  0.76901667  0.11038667  1
  H  H2258  1  0.23098333  0.33765667  0.11038667  1
  H  H2259  1  0.67099000  0.77334000  0.55628000  1
  H  H2260  1  0.22666000  0.89765000  0.55628000  1
  H  H2261  1  0.10235000  0.32901000  0.55628000  1
  H  H2262  1  0.00432333  0.44000667  0.22294667  1
  H  H2263  1  0.55999333  0.56431667  0.22294667  1
  H  H2264  1  0.43568333  0.00000000  0.22294667  1
  H  H2265  1  0.33765667  0.10667333  0.88961333  1
  H  H2266  1  0.89332667  0.23098333  0.88961333  1
  H  H2267  1  0.76901667  0.66234333  0.88961333  1
  C  C2268  1  0.32786120  0.20136900  0.39836000  1
  C  C2269  1  0.79863100  0.12649220  0.39836000  1
  C  C2270  1  0.87350780  0.67213880  0.39836000  1
  C  C2271  1  0.99452787  0.53470233  0.73169333  1
  C  C2272  1  0.46529767  0.45982553  0.73169333  1
  C  C2273  1  0.54017447  0.00547213  0.73169333  1
  C  C2274  1  0.66119453  0.86803567  0.06502667  1
  C  C2275  1  0.13196433  0.79315887  0.06502667  1
  C  C2276  1  0.20684113  0.33880547  0.06502667  1
  C  C2277  1  0.67213880  0.79863100  0.60164000  1
  C  C2278  1  0.20136900  0.87350780  0.60164000  1
  C  C2279  1  0.12649220  0.32786120  0.60164000  1
  C  C2280  1  0.00547213  0.46529767  0.26830667  1
  C  C2281  1  0.53470233  0.54017447  0.26830667  1
  C  C2282  1  0.45982553  0.99452787  0.26830667  1
  C  C2283  1  0.33880547  0.13196433  0.93497333  1
  C  C2284  1  0.86803567  0.20684113  0.93497333  1
  C  C2285  1  0.79315887  0.66119453  0.93497333  1
  H  H2286  1  0.33704000  0.20244000  0.46141000  1
  H  H2287  1  0.79756000  0.13460000  0.46141000  1
  H  H2288  1  0.86540000  0.66296000  0.46141000  1
  H  H2289  1  0.00370667  0.53577333  0.79474333  1
  H  H2290  1  0.46422667  0.46793333  0.79474333  1
  H  H2291  1  0.53206667  0.00000000  0.79474333  1
  H  H2292  1  0.67037333  0.86910667  0.12807667  1
  H  H2293  1  0.13089333  0.80126667  0.12807667  1
  H  H2294  1  0.19873333  0.32962667  0.12807667  1
  H  H2295  1  0.66296000  0.79756000  0.53859000  1
  H  H2296  1  0.20244000  0.86540000  0.53859000  1
  H  H2297  1  0.13460000  0.33704000  0.53859000  1
  H  H2298  1  0.00000000  0.46422667  0.20525667  1
  H  H2299  1  0.53577333  0.53206667  0.20525667  1
  H  H2300  1  0.46793333  0.00370667  0.20525667  1
  H  H2301  1  0.32962667  0.13089333  0.87192333  1
  H  H2302  1  0.86910667  0.19873333  0.87192333  1
  H  H2303  1  0.80126667  0.67037333  0.87192333  1
  C  C2304  1  0.31892120  0.18507900  0.32056000  1
  C  C2305  1  0.81492100  0.13384220  0.32056000  1
  C  C2306  1  0.86615780  0.68107880  0.32056000  1
  C  C2307  1  0.98558787  0.51841233  0.65389333  1
  C  C2308  1  0.48158767  0.46717553  0.65389333  1
  C  C2309  1  0.53282447  0.01441213  0.65389333  1
  C  C2310  1  0.65225453  0.85174567  0.98722667  1
  C  C2311  1  0.14825433  0.80050887  0.98722667  1
  C  C2312  1  0.19949113  0.34774547  0.98722667  1
  C  C2313  1  0.68107880  0.81492100  0.67944000  1
  C  C2314  1  0.18507900  0.86615780  0.67944000  1
  C  C2315  1  0.13384220  0.31892120  0.67944000  1
  C  C2316  1  0.01441213  0.48158767  0.34610667  1
  C  C2317  1  0.51841233  0.53282447  0.34610667  1
  C  C2318  1  0.46717553  0.98558787  0.34610667  1
  C  C2319  1  0.34774547  0.14825433  0.01277333  1
  C  C2320  1  0.85174567  0.19949113  0.01277333  1
  C  C2321  1  0.80050887  0.65225453  0.01277333  1
  H  H2322  1  0.32231000  0.17525000  0.32898000  1
  H  H2323  1  0.82475000  0.14706000  0.32898000  1
  H  H2324  1  0.85294000  0.67769000  0.32898000  1
  H  H2325  1  0.98897667  0.50858333  0.66231333  1
  H  H2326  1  0.49141667  0.48039333  0.66231333  1
  H  H2327  1  0.51960667  0.01102333  0.66231333  1
  H  H2328  1  0.65564333  0.84191667  0.00000000  1
  H  H2329  1  0.15808333  0.81372667  0.00000000  1
  H  H2330  1  0.18627333  0.34435667  0.00000000  1
  H  H2331  1  0.67769000  0.82475000  0.67102000  1
  H  H2332  1  0.17525000  0.85294000  0.67102000  1
  H  H2333  1  0.14706000  0.32231000  0.67102000  1
  H  H2334  1  0.01102333  0.49141667  0.33768667  1
  H  H2335  1  0.50858333  0.51960667  0.33768667  1
  H  H2336  1  0.48039333  0.98897667  0.33768667  1
  H  H2337  1  0.34435667  0.15808333  0.00435333  1
  H  H2338  1  0.84191667  0.18627333  0.00435333  1
  H  H2339  1  0.81372667  0.65564333  0.00435333  1
  C  C2340  1  0.30509110  0.18285800  0.23025000  1
  C  C2341  1  0.81714200  0.12223310  0.23025000  1
  C  C2342  1  0.87776690  0.69490890  0.23025000  1
  C  C2343  1  0.97175777  0.51619133  0.56358333  1
  C  C2344  1  0.48380867  0.45556643  0.56358333  1
  C  C2345  1  0.54443357  0.02824223  0.56358333  1
  C  C2346  1  0.63842443  0.84952467  0.89691667  1
  C  C2347  1  0.15047533  0.78889977  0.89691667  1
  C  C2348  1  0.21110023  0.36157557  0.89691667  1
  C  C2349  1  0.69490890  0.81714200  0.76975000  1
  C  C2350  1  0.18285800  0.87776690  0.76975000  1
  C  C2351  1  0.12223310  0.30509110  0.76975000  1
  C  C2352  1  0.02824223  0.48380867  0.43641667  1
  C  C2353  1  0.51619133  0.54443357  0.43641667  1
  C  C2354  1  0.45556643  0.97175777  0.43641667  1
  C  C2355  1  0.36157557  0.15047533  0.10308333  1
  C  C2356  1  0.84952467  0.21110023  0.10308333  1
  C  C2357  1  0.78889977  0.63842443  0.10308333  1
  C  C2358  1  0.30159110  0.19844800  0.20735000  1
  C  C2359  1  0.80155200  0.10314310  0.20735000  1
  C  C2360  1  0.89685690  0.69840890  0.20735000  1
  C  C2361  1  0.96825777  0.53178133  0.54068333  1
  C  C2362  1  0.46821867  0.43647643  0.54068333  1
  C  C2363  1  0.56352357  0.03174223  0.54068333  1
  C  C2364  1  0.63492443  0.86511467  0.87401667  1
  C  C2365  1  0.13488533  0.76980977  0.87401667  1
  C  C2366  1  0.23019023  0.36507557  0.87401667  1
  C  C2367  1  0.69840890  0.80155200  0.79265000  1
  C  C2368  1  0.19844800  0.89685690  0.79265000  1
  C  C2369  1  0.10314310  0.30159110  0.79265000  1
  C  C2370  1  0.03174223  0.46821867  0.45931667  1
  C  C2371  1  0.53178133  0.56352357  0.45931667  1
  C  C2372  1  0.43647643  0.96825777  0.45931667  1
  C  C2373  1  0.36507557  0.13488533  0.12598333  1
  C  C2374  1  0.86511467  0.23019023  0.12598333  1
  C  C2375  1  0.76980977  0.63492443  0.12598333  1
  C  C2376  1  0.29321110  0.16289800  0.17345000  1
  C  C2377  1  0.83710200  0.13031310  0.17345000  1
  C  C2378  1  0.86968690  0.70678890  0.17345000  1
  C  C2379  1  0.95987777  0.49623133  0.50678333  1
  C  C2380  1  0.50376867  0.46364643  0.50678333  1
  C  C2381  1  0.53635357  0.04012223  0.50678333  1
  C  C2382  1  0.62654443  0.82956467  0.84011667  1
  C  C2383  1  0.17043533  0.79697977  0.84011667  1
  C  C2384  1  0.20302023  0.37345557  0.84011667  1
  C  C2385  1  0.70678890  0.83710200  0.82655000  1
  C  C2386  1  0.16289800  0.86968690  0.82655000  1
  C  C2387  1  0.13031310  0.29321110  0.82655000  1
  C  C2388  1  0.04012223  0.50376867  0.49321667  1
  C  C2389  1  0.49623133  0.53635357  0.49321667  1
  C  C2390  1  0.46364643  0.95987777  0.49321667  1
  C  C2391  1  0.37345557  0.17043533  0.15988333  1
  C  C2392  1  0.82956467  0.20302023  0.15988333  1
  C  C2393  1  0.79697977  0.62654443  0.15988333  1
  C  C2394  1  0.27364110  0.15254800  0.19215000  1
  C  C2395  1  0.84745200  0.12109310  0.19215000  1
  C  C2396  1  0.87890690  0.72635890  0.19215000  1
  C  C2397  1  0.94030777  0.48588133  0.52548333  1
  C  C2398  1  0.51411867  0.45442643  0.52548333  1
  C  C2399  1  0.54557357  0.05969223  0.52548333  1
  C  C2400  1  0.60697443  0.81921467  0.85881667  1
  C  C2401  1  0.18078533  0.78775977  0.85881667  1
  C  C2402  1  0.21224023  0.39302557  0.85881667  1
  C  C2403  1  0.72635890  0.84745200  0.80785000  1
  C  C2404  1  0.15254800  0.87890690  0.80785000  1
  C  C2405  1  0.12109310  0.27364110  0.80785000  1
  C  C2406  1  0.05969223  0.51411867  0.47451667  1
  C  C2407  1  0.48588133  0.54557357  0.47451667  1
  C  C2408  1  0.45442643  0.94030777  0.47451667  1
  C  C2409  1  0.39302557  0.18078533  0.14118333  1
  C  C2410  1  0.81921467  0.21224023  0.14118333  1
  C  C2411  1  0.78775977  0.60697443  0.14118333  1
  H  H2412  1  0.26734000  0.15863000  0.23236000  1
  H  H2413  1  0.84137000  0.10871000  0.23236000  1
  H  H2414  1  0.89129000  0.73266000  0.23236000  1
  H  H2415  1  0.93400667  0.49196333  0.56569333  1
  H  H2416  1  0.50803667  0.44204333  0.56569333  1
  H  H2417  1  0.55795667  0.06599333  0.56569333  1
  H  H2418  1  0.60067333  0.82529667  0.89902667  1
  H  H2419  1  0.17470333  0.77537667  0.89902667  1
  H  H2420  1  0.22462333  0.39932667  0.89902667  1
  H  H2421  1  0.73266000  0.84137000  0.76764000  1
  H  H2422  1  0.15863000  0.89129000  0.76764000  1
  H  H2423  1  0.10871000  0.26734000  0.76764000  1
  H  H2424  1  0.06599333  0.50803667  0.43430667  1
  H  H2425  1  0.49196333  0.55795667  0.43430667  1
  H  H2426  1  0.44204333  0.93400667  0.43430667  1
  H  H2427  1  0.39932667  0.17470333  0.10097333  1
  H  H2428  1  0.82529667  0.22462333  0.10097333  1
  H  H2429  1  0.77537667  0.60067333  0.10097333  1
  C  C2430  1  0.26260120  0.13311900  0.15325000  1
  C  C2431  1  0.86688100  0.12948220  0.15325000  1
  C  C2432  1  0.87051780  0.73739880  0.15325000  1
  C  C2433  1  0.92926787  0.46645233  0.48658333  1
  C  C2434  1  0.53354767  0.46281553  0.48658333  1
  C  C2435  1  0.53718447  0.07073213  0.48658333  1
  C  C2436  1  0.59593453  0.79978567  0.81991667  1
  C  C2437  1  0.20021433  0.79614887  0.81991667  1
  C  C2438  1  0.20385113  0.40406547  0.81991667  1
  C  C2439  1  0.73739880  0.86688100  0.84675000  1
  C  C2440  1  0.13311900  0.87051780  0.84675000  1
  C  C2441  1  0.12948220  0.26260120  0.84675000  1
  C  C2442  1  0.07073213  0.53354767  0.51341667  1
  C  C2443  1  0.46645233  0.53718447  0.51341667  1
  C  C2444  1  0.46281553  0.92926787  0.51341667  1
  C  C2445  1  0.40406547  0.20021433  0.18008333  1
  C  C2446  1  0.79978567  0.20385113  0.18008333  1
  C  C2447  1  0.79614887  0.59593453  0.18008333  1
  H  H2448  1  0.24908000  0.12592000  0.17093000  1
  H  H2449  1  0.87408000  0.12316000  0.17093000  1
  H  H2450  1  0.87684000  0.75092000  0.17093000  1
  H  H2451  1  0.91574667  0.45925333  0.50426333  1
  H  H2452  1  0.54074667  0.45649333  0.50426333  1
  H  H2453  1  0.54350667  0.08425333  0.50426333  1
  H  H2454  1  0.58241333  0.79258667  0.83759667  1
  H  H2455  1  0.20741333  0.78982667  0.83759667  1
  H  H2456  1  0.21017333  0.41758667  0.83759667  1
  H  H2457  1  0.75092000  0.87408000  0.82907000  1
  H  H2458  1  0.12592000  0.87684000  0.82907000  1
  H  H2459  1  0.12316000  0.24908000  0.82907000  1
  H  H2460  1  0.08425333  0.54074667  0.49573667  1
  H  H2461  1  0.45925333  0.54350667  0.49573667  1
  H  H2462  1  0.45649333  0.91574667  0.49573667  1
  H  H2463  1  0.41758667  0.20741333  0.16240333  1
  H  H2464  1  0.79258667  0.21017333  0.16240333  1
  H  H2465  1  0.78982667  0.58241333  0.16240333  1
  C  C2466  1  0.27156110  0.12451800  0.08875000  1
  C  C2467  1  0.87548200  0.14704310  0.08875000  1
  C  C2468  1  0.85295690  0.72843890  0.08875000  1
  C  C2469  1  0.93822777  0.45785133  0.42208333  1
  C  C2470  1  0.54214867  0.48037643  0.42208333  1
  C  C2471  1  0.51962357  0.06177223  0.42208333  1
  C  C2472  1  0.60489443  0.79118467  0.75541667  1
  C  C2473  1  0.20881533  0.81370977  0.75541667  1
  C  C2474  1  0.18629023  0.39510557  0.75541667  1
  C  C2475  1  0.72843890  0.87548200  0.91125000  1
  C  C2476  1  0.12451800  0.85295690  0.91125000  1
  C  C2477  1  0.14704310  0.27156110  0.91125000  1
  C  C2478  1  0.06177223  0.54214867  0.57791667  1
  C  C2479  1  0.45785133  0.51962357  0.57791667  1
  C  C2480  1  0.48037643  0.93822777  0.57791667  1
  C  C2481  1  0.39510557  0.20881533  0.24458333  1
  C  C2482  1  0.79118467  0.18629023  0.24458333  1
  C  C2483  1  0.81370977  0.60489443  0.24458333  1
  C  C2484  1  0.25963130  0.10385900  0.04776000  1
  C  C2485  1  0.89614100  0.15577230  0.04776000  1
  C  C2486  1  0.84422770  0.74036870  0.04776000  1
  C  C2487  1  0.92629797  0.43719233  0.38109333  1
  C  C2488  1  0.56280767  0.48910563  0.38109333  1
  C  C2489  1  0.51089437  0.07370203  0.38109333  1
  C  C2490  1  0.59296463  0.77052567  0.71442667  1
  C  C2491  1  0.22947433  0.82243897  0.71442667  1
  C  C2492  1  0.17756103  0.40703537  0.71442667  1
  C  C2493  1  0.74036870  0.89614100  0.95224000  1
  C  C2494  1  0.10385900  0.84422770  0.95224000  1
  C  C2495  1  0.15577230  0.25963130  0.95224000  1
  C  C2496  1  0.07370203  0.56280767  0.61890667  1
  C  C2497  1  0.43719233  0.51089437  0.61890667  1
  C  C2498  1  0.48910563  0.92629797  0.61890667  1
  C  C2499  1  0.40703537  0.22947433  0.28557333  1
  C  C2500  1  0.77052567  0.17756103  0.28557333  1
  C  C2501  1  0.82243897  0.59296463  0.28557333  1
  C  C2502  1  0.29074110  0.13494800  0.06845000  1
  C  C2503  1  0.86505200  0.15579310  0.06845000  1
  C  C2504  1  0.84420690  0.70925890  0.06845000  1
  C  C2505  1  0.95740777  0.46828133  0.40178333  1
  C  C2506  1  0.53171867  0.48912643  0.40178333  1
  C  C2507  1  0.51087357  0.04259223  0.40178333  1
  C  C2508  1  0.62407443  0.80161467  0.73511667  1
  C  C2509  1  0.19838533  0.82245977  0.73511667  1
  C  C2510  1  0.17754023  0.37592557  0.73511667  1
  C  C2511  1  0.70925890  0.86505200  0.93155000  1
  C  C2512  1  0.13494800  0.84420690  0.93155000  1
  C  C2513  1  0.15579310  0.29074110  0.93155000  1
  C  C2514  1  0.04259223  0.53171867  0.59821667  1
  C  C2515  1  0.46828133  0.51087357  0.59821667  1
  C  C2516  1  0.48912643  0.95740777  0.59821667  1
  C  C2517  1  0.37592557  0.19838533  0.26488333  1
  C  C2518  1  0.80161467  0.17754023  0.26488333  1
  C  C2519  1  0.82245977  0.62407443  0.26488333  1
  H  H2520  1  0.29679000  0.12902000  0.02271000  1
  H  H2521  1  0.87098000  0.16777000  0.02271000  1
  H  H2522  1  0.83223000  0.70321000  0.02271000  1
  H  H2523  1  0.96345667  0.46235333  0.35604333  1
  H  H2524  1  0.53764667  0.50110333  0.35604333  1
  H  H2525  1  0.49889667  0.03654333  0.35604333  1
  H  H2526  1  0.63012333  0.79568667  0.68937667  1
  H  H2527  1  0.20431333  0.83443667  0.68937667  1
  H  H2528  1  0.16556333  0.36987667  0.68937667  1
  H  H2529  1  0.70321000  0.87098000  0.97729000  1
  H  H2530  1  0.12902000  0.83223000  0.97729000  1
  H  H2531  1  0.16777000  0.29679000  0.97729000  1
  H  H2532  1  0.03654333  0.53764667  0.64395667  1
  H  H2533  1  0.46235333  0.49889667  0.64395667  1
  H  H2534  1  0.50110333  0.96345667  0.64395667  1
  H  H2535  1  0.36987667  0.20431333  0.31062333  1
  H  H2536  1  0.79568667  0.16556333  0.31062333  1
  H  H2537  1  0.83443667  0.63012333  0.31062333  1
  C  C2538  1  0.30222110  0.15387800  0.11035000  1
  C  C2539  1  0.84612200  0.14834310  0.11035000  1
  C  C2540  1  0.85165690  0.69777890  0.11035000  1
  C  C2541  1  0.96888777  0.48721133  0.44368333  1
  C  C2542  1  0.51278867  0.48167643  0.44368333  1
  C  C2543  1  0.51832357  0.03111223  0.44368333  1
  C  C2544  1  0.63555443  0.82054467  0.77701667  1
  C  C2545  1  0.17945533  0.81500977  0.77701667  1
  C  C2546  1  0.18499023  0.36444557  0.77701667  1
  C  C2547  1  0.69777890  0.84612200  0.88965000  1
  C  C2548  1  0.15387800  0.85165690  0.88965000  1
  C  C2549  1  0.14834310  0.30222110  0.88965000  1
  C  C2550  1  0.03111223  0.51278867  0.55631667  1
  C  C2551  1  0.48721133  0.51832357  0.55631667  1
  C  C2552  1  0.48167643  0.96888777  0.55631667  1
  C  C2553  1  0.36444557  0.17945533  0.22298333  1
  C  C2554  1  0.82054467  0.18499023  0.22298333  1
  C  C2555  1  0.81500977  0.63555443  0.22298333  1
  H  H2556  1  0.31586000  0.16059000  0.09669000  1
  H  H2557  1  0.83941000  0.15527000  0.09669000  1
  H  H2558  1  0.84473000  0.68414000  0.09669000  1
  H  H2559  1  0.98252667  0.49392333  0.43002333  1
  H  H2560  1  0.50607667  0.48860333  0.43002333  1
  H  H2561  1  0.51139667  0.01747333  0.43002333  1
  H  H2562  1  0.64919333  0.82725667  0.76335667  1
  H  H2563  1  0.17274333  0.82193667  0.76335667  1
  H  H2564  1  0.17806333  0.35080667  0.76335667  1
  H  H2565  1  0.68414000  0.83941000  0.90331000  1
  H  H2566  1  0.16059000  0.84473000  0.90331000  1
  H  H2567  1  0.15527000  0.31586000  0.90331000  1
  H  H2568  1  0.01747333  0.50607667  0.56997667  1
  H  H2569  1  0.49392333  0.51139667  0.56997667  1
  H  H2570  1  0.48860333  0.98252667  0.56997667  1
  H  H2571  1  0.35080667  0.17274333  0.23664333  1
  H  H2572  1  0.82725667  0.17806333  0.23664333  1
  H  H2573  1  0.82193667  0.64919333  0.23664333  1
