# generated using pymatgen
data_CuH8C16N2O5
_symmetry_space_group_name_H-M   'P 1'
_cell_length_a   46.63650000
_cell_length_b   46.63650000
_cell_length_c   46.63650000
_cell_angle_alpha   90.00000000
_cell_angle_beta   90.00000000
_cell_angle_gamma   90.00000000
_symmetry_Int_Tables_number   1
_chemical_formula_structural   CuH8C16N2O5
_chemical_formula_sum   'Cu48 H384 C768 N96 O240'
_cell_volume   101432.66811718
_cell_formula_units_Z   48
loop_
 _symmetry_equiv_pos_site_id
 _symmetry_equiv_pos_as_xyz
  1  'x, y, z'
loop_
 _atom_site_type_symbol
 _atom_site_label
 _atom_site_symmetry_multiplicity
 _atom_site_fract_x
 _atom_site_fract_y
 _atom_site_fract_z
 _atom_site_occupancy
  Cu  Cu0  1  0.00000000  0.22986512  0.27013512  1
  Cu  Cu1  1  0.27013512  0.00000000  0.22986512  1
  Cu  Cu2  1  0.22986512  0.27013512  0.00000000  1
  Cu  Cu3  1  0.22986512  0.00000000  0.72986488  1
  Cu  Cu4  1  0.22986512  0.00000000  0.27013512  1
  Cu  Cu5  1  0.77013488  0.00000000  0.27013512  1
  Cu  Cu6  1  0.00000000  0.27013512  0.77013488  1
  Cu  Cu7  1  0.00000000  0.27013512  0.22986512  1
  Cu  Cu8  1  0.00000000  0.72986488  0.22986512  1
  Cu  Cu9  1  0.27013512  0.22986512  0.00000000  1
  Cu  Cu10  1  0.27013512  0.77013488  0.00000000  1
  Cu  Cu11  1  0.72986488  0.22986512  0.00000000  1
  Cu  Cu12  1  0.00000000  0.72986512  0.77013512  1
  Cu  Cu13  1  0.27013512  0.50000000  0.72986512  1
  Cu  Cu14  1  0.22986512  0.77013512  0.50000000  1
  Cu  Cu15  1  0.22986512  0.50000000  0.22986488  1
  Cu  Cu16  1  0.22986512  0.50000000  0.77013512  1
  Cu  Cu17  1  0.77013488  0.50000000  0.77013512  1
  Cu  Cu18  1  0.00000000  0.77013512  0.27013488  1
  Cu  Cu19  1  0.00000000  0.77013512  0.72986512  1
  Cu  Cu20  1  0.00000000  0.22986488  0.72986512  1
  Cu  Cu21  1  0.27013512  0.72986512  0.50000000  1
  Cu  Cu22  1  0.27013512  0.27013488  0.50000000  1
  Cu  Cu23  1  0.72986488  0.72986512  0.50000000  1
  Cu  Cu24  1  0.50000000  0.22986512  0.77013512  1
  Cu  Cu25  1  0.77013512  0.00000000  0.72986512  1
  Cu  Cu26  1  0.72986512  0.27013512  0.50000000  1
  Cu  Cu27  1  0.72986512  0.00000000  0.22986488  1
  Cu  Cu28  1  0.72986512  0.00000000  0.77013512  1
  Cu  Cu29  1  0.27013488  0.00000000  0.77013512  1
  Cu  Cu30  1  0.50000000  0.27013512  0.27013488  1
  Cu  Cu31  1  0.50000000  0.27013512  0.72986512  1
  Cu  Cu32  1  0.50000000  0.72986488  0.72986512  1
  Cu  Cu33  1  0.77013512  0.22986512  0.50000000  1
  Cu  Cu34  1  0.77013512  0.77013488  0.50000000  1
  Cu  Cu35  1  0.22986488  0.22986512  0.50000000  1
  Cu  Cu36  1  0.50000000  0.72986512  0.27013512  1
  Cu  Cu37  1  0.77013512  0.50000000  0.22986512  1
  Cu  Cu38  1  0.72986512  0.77013512  0.00000000  1
  Cu  Cu39  1  0.72986512  0.50000000  0.72986488  1
  Cu  Cu40  1  0.72986512  0.50000000  0.27013512  1
  Cu  Cu41  1  0.27013488  0.50000000  0.27013512  1
  Cu  Cu42  1  0.50000000  0.77013512  0.77013488  1
  Cu  Cu43  1  0.50000000  0.77013512  0.22986512  1
  Cu  Cu44  1  0.50000000  0.22986488  0.22986512  1
  Cu  Cu45  1  0.77013512  0.72986512  0.00000000  1
  Cu  Cu46  1  0.77013512  0.27013488  0.00000000  1
  Cu  Cu47  1  0.22986488  0.72986512  0.00000000  1
  O  O96  1  0.97042600  0.21174400  0.24575400  1
  O  O97  1  0.24575400  0.97042600  0.21174400  1
  O  O98  1  0.21174400  0.24575400  0.97042600  1
  O  O99  1  0.21174400  0.97042600  0.75424600  1
  O  O100  1  0.21174400  0.02957400  0.24575400  1
  O  O101  1  0.78825600  0.97042600  0.24575400  1
  O  O102  1  0.97042600  0.24575400  0.78825600  1
  O  O103  1  0.02957400  0.24575400  0.21174400  1
  O  O104  1  0.97042600  0.75424600  0.21174400  1
  O  O105  1  0.24575400  0.21174400  0.02957400  1
  O  O106  1  0.24575400  0.78825600  0.97042600  1
  O  O107  1  0.75424600  0.21174400  0.97042600  1
  O  O108  1  0.97042600  0.71174400  0.74575400  1
  O  O109  1  0.24575400  0.47042600  0.71174400  1
  O  O110  1  0.21174400  0.74575400  0.47042600  1
  O  O111  1  0.21174400  0.47042600  0.25424600  1
  O  O112  1  0.21174400  0.52957400  0.74575400  1
  O  O113  1  0.78825600  0.47042600  0.74575400  1
  O  O114  1  0.97042600  0.74575400  0.28825600  1
  O  O115  1  0.02957400  0.74575400  0.71174400  1
  O  O116  1  0.97042600  0.25424600  0.71174400  1
  O  O117  1  0.24575400  0.71174400  0.52957400  1
  O  O118  1  0.24575400  0.28825600  0.47042600  1
  O  O119  1  0.75424600  0.71174400  0.47042600  1
  O  O120  1  0.47042600  0.21174400  0.74575400  1
  O  O121  1  0.74575400  0.97042600  0.71174400  1
  O  O122  1  0.71174400  0.24575400  0.47042600  1
  O  O123  1  0.71174400  0.97042600  0.25424600  1
  O  O124  1  0.71174400  0.02957400  0.74575400  1
  O  O125  1  0.28825600  0.97042600  0.74575400  1
  O  O126  1  0.47042600  0.24575400  0.28825600  1
  O  O127  1  0.52957400  0.24575400  0.71174400  1
  O  O128  1  0.47042600  0.75424600  0.71174400  1
  O  O129  1  0.74575400  0.21174400  0.52957400  1
  O  O130  1  0.74575400  0.78825600  0.47042600  1
  O  O131  1  0.25424600  0.21174400  0.47042600  1
  O  O132  1  0.47042600  0.71174400  0.24575400  1
  O  O133  1  0.74575400  0.47042600  0.21174400  1
  O  O134  1  0.71174400  0.74575400  0.97042600  1
  O  O135  1  0.71174400  0.47042600  0.75424600  1
  O  O136  1  0.71174400  0.52957400  0.24575400  1
  O  O137  1  0.28825600  0.47042600  0.24575400  1
  O  O138  1  0.47042600  0.74575400  0.78825600  1
  O  O139  1  0.52957400  0.74575400  0.21174400  1
  O  O140  1  0.47042600  0.25424600  0.21174400  1
  O  O141  1  0.74575400  0.71174400  0.02957400  1
  O  O142  1  0.74575400  0.28825600  0.97042600  1
  O  O143  1  0.25424600  0.71174400  0.97042600  1
  O  O144  1  0.02957400  0.78825600  0.24575400  1
  O  O145  1  0.02957400  0.21174400  0.75424600  1
  O  O146  1  0.97042600  0.78825600  0.75424600  1
  O  O147  1  0.24575400  0.02957400  0.78825600  1
  O  O148  1  0.75424600  0.02957400  0.21174400  1
  O  O149  1  0.75424600  0.97042600  0.78825600  1
  O  O150  1  0.78825600  0.24575400  0.02957400  1
  O  O151  1  0.21174400  0.75424600  0.02957400  1
  O  O152  1  0.78825600  0.75424600  0.97042600  1
  O  O153  1  0.78825600  0.02957400  0.75424600  1
  O  O154  1  0.02957400  0.75424600  0.78825600  1
  O  O155  1  0.75424600  0.78825600  0.02957400  1
  O  O156  1  0.02957400  0.28825600  0.74575400  1
  O  O157  1  0.02957400  0.71174400  0.25424600  1
  O  O158  1  0.97042600  0.28825600  0.25424600  1
  O  O159  1  0.24575400  0.52957400  0.28825600  1
  O  O160  1  0.75424600  0.52957400  0.71174400  1
  O  O161  1  0.75424600  0.47042600  0.28825600  1
  O  O162  1  0.78825600  0.74575400  0.52957400  1
  O  O163  1  0.21174400  0.25424600  0.52957400  1
  O  O164  1  0.78825600  0.25424600  0.47042600  1
  O  O165  1  0.78825600  0.52957400  0.25424600  1
  O  O166  1  0.02957400  0.25424600  0.28825600  1
  O  O167  1  0.75424600  0.28825600  0.52957400  1
  O  O168  1  0.52957400  0.78825600  0.74575400  1
  O  O169  1  0.52957400  0.21174400  0.25424600  1
  O  O170  1  0.47042600  0.78825600  0.25424600  1
  O  O171  1  0.74575400  0.02957400  0.28825600  1
  O  O172  1  0.25424600  0.02957400  0.71174400  1
  O  O173  1  0.25424600  0.97042600  0.28825600  1
  O  O174  1  0.28825600  0.24575400  0.52957400  1
  O  O175  1  0.71174400  0.75424600  0.52957400  1
  O  O176  1  0.28825600  0.75424600  0.47042600  1
  O  O177  1  0.28825600  0.02957400  0.25424600  1
  O  O178  1  0.52957400  0.75424600  0.28825600  1
  O  O179  1  0.25424600  0.78825600  0.52957400  1
  O  O180  1  0.52957400  0.28825600  0.24575400  1
  O  O181  1  0.52957400  0.71174400  0.75424600  1
  O  O182  1  0.47042600  0.28825600  0.75424600  1
  O  O183  1  0.74575400  0.52957400  0.78825600  1
  O  O184  1  0.25424600  0.52957400  0.21174400  1
  O  O185  1  0.25424600  0.47042600  0.78825600  1
  O  O186  1  0.28825600  0.74575400  0.02957400  1
  O  O187  1  0.71174400  0.25424600  0.02957400  1
  O  O188  1  0.28825600  0.25424600  0.97042600  1
  O  O189  1  0.28825600  0.52957400  0.75424600  1
  O  O190  1  0.52957400  0.25424600  0.78825600  1
  O  O191  1  0.25424600  0.28825600  0.02957400  1
  O  O192  1  0.02957400  0.78825600  0.75424600  1
  O  O193  1  0.75424600  0.02957400  0.78825600  1
  O  O194  1  0.78825600  0.75424600  0.02957400  1
  O  O195  1  0.78825600  0.02957400  0.24575400  1
  O  O196  1  0.78825600  0.97042600  0.75424600  1
  O  O197  1  0.21174400  0.02957400  0.75424600  1
  O  O198  1  0.02957400  0.75424600  0.21174400  1
  O  O199  1  0.97042600  0.75424600  0.78825600  1
  O  O200  1  0.02957400  0.24575400  0.78825600  1
  O  O201  1  0.75424600  0.78825600  0.97042600  1
  O  O202  1  0.75424600  0.21174400  0.02957400  1
  O  O203  1  0.24575400  0.78825600  0.02957400  1
  O  O204  1  0.02957400  0.28825600  0.25424600  1
  O  O205  1  0.75424600  0.52957400  0.28825600  1
  O  O206  1  0.78825600  0.25424600  0.52957400  1
  O  O207  1  0.78825600  0.52957400  0.74575400  1
  O  O208  1  0.78825600  0.47042600  0.25424600  1
  O  O209  1  0.21174400  0.52957400  0.25424600  1
  O  O210  1  0.02957400  0.25424600  0.71174400  1
  O  O211  1  0.97042600  0.25424600  0.28825600  1
  O  O212  1  0.02957400  0.74575400  0.28825600  1
  O  O213  1  0.75424600  0.28825600  0.47042600  1
  O  O214  1  0.75424600  0.71174400  0.52957400  1
  O  O215  1  0.24575400  0.28825600  0.52957400  1
  O  O216  1  0.52957400  0.78825600  0.25424600  1
  O  O217  1  0.25424600  0.02957400  0.28825600  1
  O  O218  1  0.28825600  0.75424600  0.52957400  1
  O  O219  1  0.28825600  0.02957400  0.74575400  1
  O  O220  1  0.28825600  0.97042600  0.25424600  1
  O  O221  1  0.71174400  0.02957400  0.25424600  1
  O  O222  1  0.52957400  0.75424600  0.71174400  1
  O  O223  1  0.47042600  0.75424600  0.28825600  1
  O  O224  1  0.52957400  0.24575400  0.28825600  1
  O  O225  1  0.25424600  0.78825600  0.47042600  1
  O  O226  1  0.25424600  0.21174400  0.52957400  1
  O  O227  1  0.74575400  0.78825600  0.52957400  1
  O  O228  1  0.52957400  0.28825600  0.75424600  1
  O  O229  1  0.25424600  0.52957400  0.78825600  1
  O  O230  1  0.28825600  0.25424600  0.02957400  1
  O  O231  1  0.28825600  0.52957400  0.24575400  1
  O  O232  1  0.28825600  0.47042600  0.75424600  1
  O  O233  1  0.71174400  0.52957400  0.75424600  1
  O  O234  1  0.52957400  0.25424600  0.21174400  1
  O  O235  1  0.47042600  0.25424600  0.78825600  1
  O  O236  1  0.52957400  0.74575400  0.78825600  1
  O  O237  1  0.25424600  0.28825600  0.97042600  1
  O  O238  1  0.25424600  0.71174400  0.02957400  1
  O  O239  1  0.74575400  0.28825600  0.02957400  1
  O  O240  1  0.97042600  0.21174400  0.75424600  1
  O  O241  1  0.97042600  0.78825600  0.24575400  1
  O  O242  1  0.02957400  0.21174400  0.24575400  1
  O  O243  1  0.75424600  0.97042600  0.21174400  1
  O  O244  1  0.24575400  0.97042600  0.78825600  1
  O  O245  1  0.24575400  0.02957400  0.21174400  1
  O  O246  1  0.21174400  0.75424600  0.97042600  1
  O  O247  1  0.78825600  0.24575400  0.97042600  1
  O  O248  1  0.21174400  0.24575400  0.02957400  1
  O  O249  1  0.21174400  0.97042600  0.24575400  1
  O  O250  1  0.97042600  0.24575400  0.21174400  1
  O  O251  1  0.24575400  0.21174400  0.97042600  1
  O  O252  1  0.97042600  0.71174400  0.25424600  1
  O  O253  1  0.97042600  0.28825600  0.74575400  1
  O  O254  1  0.02957400  0.71174400  0.74575400  1
  O  O255  1  0.75424600  0.47042600  0.71174400  1
  O  O256  1  0.24575400  0.47042600  0.28825600  1
  O  O257  1  0.24575400  0.52957400  0.71174400  1
  O  O258  1  0.21174400  0.25424600  0.47042600  1
  O  O259  1  0.78825600  0.74575400  0.47042600  1
  O  O260  1  0.21174400  0.74575400  0.52957400  1
  O  O261  1  0.21174400  0.47042600  0.74575400  1
  O  O262  1  0.97042600  0.74575400  0.71174400  1
  O  O263  1  0.24575400  0.71174400  0.47042600  1
  O  O264  1  0.47042600  0.21174400  0.25424600  1
  O  O265  1  0.47042600  0.78825600  0.74575400  1
  O  O266  1  0.52957400  0.21174400  0.74575400  1
  O  O267  1  0.25424600  0.97042600  0.71174400  1
  O  O268  1  0.74575400  0.97042600  0.28825600  1
  O  O269  1  0.74575400  0.02957400  0.71174400  1
  O  O270  1  0.71174400  0.75424600  0.47042600  1
  O  O271  1  0.28825600  0.24575400  0.47042600  1
  O  O272  1  0.71174400  0.24575400  0.52957400  1
  O  O273  1  0.71174400  0.97042600  0.74575400  1
  O  O274  1  0.47042600  0.24575400  0.71174400  1
  O  O275  1  0.74575400  0.21174400  0.47042600  1
  O  O276  1  0.47042600  0.71174400  0.75424600  1
  O  O277  1  0.47042600  0.28825600  0.24575400  1
  O  O278  1  0.52957400  0.71174400  0.24575400  1
  O  O279  1  0.25424600  0.47042600  0.21174400  1
  O  O280  1  0.74575400  0.47042600  0.78825600  1
  O  O281  1  0.74575400  0.52957400  0.21174400  1
  O  O282  1  0.71174400  0.25424600  0.97042600  1
  O  O283  1  0.28825600  0.74575400  0.97042600  1
  O  O284  1  0.71174400  0.74575400  0.02957400  1
  O  O285  1  0.71174400  0.47042600  0.24575400  1
  O  O286  1  0.47042600  0.74575400  0.21174400  1
  O  O287  1  0.74575400  0.71174400  0.97042600  1
  C  C288  1  0.96179200  0.22433700  0.22433700  1
  C  C289  1  0.22433700  0.96179200  0.22433700  1
  C  C290  1  0.22433700  0.22433700  0.96179200  1
  C  C291  1  0.22433700  0.96179200  0.77566300  1
  C  C292  1  0.22433700  0.03820800  0.22433700  1
  C  C293  1  0.77566300  0.96179200  0.22433700  1
  C  C294  1  0.96179200  0.22433700  0.77566300  1
  C  C295  1  0.03820800  0.22433700  0.22433700  1
  C  C296  1  0.96179200  0.77566300  0.22433700  1
  C  C297  1  0.22433700  0.22433700  0.03820800  1
  C  C298  1  0.22433700  0.77566300  0.96179200  1
  C  C299  1  0.77566300  0.22433700  0.96179200  1
  C  C300  1  0.96179200  0.72433700  0.72433700  1
  C  C301  1  0.22433700  0.46179200  0.72433700  1
  C  C302  1  0.22433700  0.72433700  0.46179200  1
  C  C303  1  0.22433700  0.46179200  0.27566300  1
  C  C304  1  0.22433700  0.53820800  0.72433700  1
  C  C305  1  0.77566300  0.46179200  0.72433700  1
  C  C306  1  0.96179200  0.72433700  0.27566300  1
  C  C307  1  0.03820800  0.72433700  0.72433700  1
  C  C308  1  0.96179200  0.27566300  0.72433700  1
  C  C309  1  0.22433700  0.72433700  0.53820800  1
  C  C310  1  0.22433700  0.27566300  0.46179200  1
  C  C311  1  0.77566300  0.72433700  0.46179200  1
  C  C312  1  0.46179200  0.22433700  0.72433700  1
  C  C313  1  0.72433700  0.96179200  0.72433700  1
  C  C314  1  0.72433700  0.22433700  0.46179200  1
  C  C315  1  0.72433700  0.96179200  0.27566300  1
  C  C316  1  0.72433700  0.03820800  0.72433700  1
  C  C317  1  0.27566300  0.96179200  0.72433700  1
  C  C318  1  0.46179200  0.22433700  0.27566300  1
  C  C319  1  0.53820800  0.22433700  0.72433700  1
  C  C320  1  0.46179200  0.77566300  0.72433700  1
  C  C321  1  0.72433700  0.22433700  0.53820800  1
  C  C322  1  0.72433700  0.77566300  0.46179200  1
  C  C323  1  0.27566300  0.22433700  0.46179200  1
  C  C324  1  0.46179200  0.72433700  0.22433700  1
  C  C325  1  0.72433700  0.46179200  0.22433700  1
  C  C326  1  0.72433700  0.72433700  0.96179200  1
  C  C327  1  0.72433700  0.46179200  0.77566300  1
  C  C328  1  0.72433700  0.53820800  0.22433700  1
  C  C329  1  0.27566300  0.46179200  0.22433700  1
  C  C330  1  0.46179200  0.72433700  0.77566300  1
  C  C331  1  0.53820800  0.72433700  0.22433700  1
  C  C332  1  0.46179200  0.27566300  0.22433700  1
  C  C333  1  0.72433700  0.72433700  0.03820800  1
  C  C334  1  0.72433700  0.27566300  0.96179200  1
  C  C335  1  0.27566300  0.72433700  0.96179200  1
  C  C336  1  0.03820800  0.77566300  0.22433700  1
  C  C337  1  0.03820800  0.22433700  0.77566300  1
  C  C338  1  0.96179200  0.77566300  0.77566300  1
  C  C339  1  0.22433700  0.03820800  0.77566300  1
  C  C340  1  0.77566300  0.03820800  0.22433700  1
  C  C341  1  0.77566300  0.96179200  0.77566300  1
  C  C342  1  0.77566300  0.22433700  0.03820800  1
  C  C343  1  0.22433700  0.77566300  0.03820800  1
  C  C344  1  0.77566300  0.77566300  0.96179200  1
  C  C345  1  0.77566300  0.03820800  0.77566300  1
  C  C346  1  0.03820800  0.77566300  0.77566300  1
  C  C347  1  0.77566300  0.77566300  0.03820800  1
  C  C348  1  0.03820800  0.27566300  0.72433700  1
  C  C349  1  0.03820800  0.72433700  0.27566300  1
  C  C350  1  0.96179200  0.27566300  0.27566300  1
  C  C351  1  0.22433700  0.53820800  0.27566300  1
  C  C352  1  0.77566300  0.53820800  0.72433700  1
  C  C353  1  0.77566300  0.46179200  0.27566300  1
  C  C354  1  0.77566300  0.72433700  0.53820800  1
  C  C355  1  0.22433700  0.27566300  0.53820800  1
  C  C356  1  0.77566300  0.27566300  0.46179200  1
  C  C357  1  0.77566300  0.53820800  0.27566300  1
  C  C358  1  0.03820800  0.27566300  0.27566300  1
  C  C359  1  0.77566300  0.27566300  0.53820800  1
  C  C360  1  0.53820800  0.77566300  0.72433700  1
  C  C361  1  0.53820800  0.22433700  0.27566300  1
  C  C362  1  0.46179200  0.77566300  0.27566300  1
  C  C363  1  0.72433700  0.03820800  0.27566300  1
  C  C364  1  0.27566300  0.03820800  0.72433700  1
  C  C365  1  0.27566300  0.96179200  0.27566300  1
  C  C366  1  0.27566300  0.22433700  0.53820800  1
  C  C367  1  0.72433700  0.77566300  0.53820800  1
  C  C368  1  0.27566300  0.77566300  0.46179200  1
  C  C369  1  0.27566300  0.03820800  0.27566300  1
  C  C370  1  0.53820800  0.77566300  0.27566300  1
  C  C371  1  0.27566300  0.77566300  0.53820800  1
  C  C372  1  0.53820800  0.27566300  0.22433700  1
  C  C373  1  0.53820800  0.72433700  0.77566300  1
  C  C374  1  0.46179200  0.27566300  0.77566300  1
  C  C375  1  0.72433700  0.53820800  0.77566300  1
  C  C376  1  0.27566300  0.53820800  0.22433700  1
  C  C377  1  0.27566300  0.46179200  0.77566300  1
  C  C378  1  0.27566300  0.72433700  0.03820800  1
  C  C379  1  0.72433700  0.27566300  0.03820800  1
  C  C380  1  0.27566300  0.27566300  0.96179200  1
  C  C381  1  0.27566300  0.53820800  0.77566300  1
  C  C382  1  0.53820800  0.27566300  0.77566300  1
  C  C383  1  0.27566300  0.27566300  0.03820800  1
  C  C384  1  0.93744100  0.20874700  0.20874700  1
  C  C385  1  0.20874700  0.93744100  0.20874700  1
  C  C386  1  0.20874700  0.20874700  0.93744100  1
  C  C387  1  0.20874700  0.93744100  0.79125300  1
  C  C388  1  0.20874700  0.06255900  0.20874700  1
  C  C389  1  0.79125300  0.93744100  0.20874700  1
  C  C390  1  0.93744100  0.20874700  0.79125300  1
  C  C391  1  0.06255900  0.20874700  0.20874700  1
  C  C392  1  0.93744100  0.79125300  0.20874700  1
  C  C393  1  0.20874700  0.20874700  0.06255900  1
  C  C394  1  0.20874700  0.79125300  0.93744100  1
  C  C395  1  0.79125300  0.20874700  0.93744100  1
  C  C396  1  0.93744100  0.70874700  0.70874700  1
  C  C397  1  0.20874700  0.43744100  0.70874700  1
  C  C398  1  0.20874700  0.70874700  0.43744100  1
  C  C399  1  0.20874700  0.43744100  0.29125300  1
  C  C400  1  0.20874700  0.56255900  0.70874700  1
  C  C401  1  0.79125300  0.43744100  0.70874700  1
  C  C402  1  0.93744100  0.70874700  0.29125300  1
  C  C403  1  0.06255900  0.70874700  0.70874700  1
  C  C404  1  0.93744100  0.29125300  0.70874700  1
  C  C405  1  0.20874700  0.70874700  0.56255900  1
  C  C406  1  0.20874700  0.29125300  0.43744100  1
  C  C407  1  0.79125300  0.70874700  0.43744100  1
  C  C408  1  0.43744100  0.20874700  0.70874700  1
  C  C409  1  0.70874700  0.93744100  0.70874700  1
  C  C410  1  0.70874700  0.20874700  0.43744100  1
  C  C411  1  0.70874700  0.93744100  0.29125300  1
  C  C412  1  0.70874700  0.06255900  0.70874700  1
  C  C413  1  0.29125300  0.93744100  0.70874700  1
  C  C414  1  0.43744100  0.20874700  0.29125300  1
  C  C415  1  0.56255900  0.20874700  0.70874700  1
  C  C416  1  0.43744100  0.79125300  0.70874700  1
  C  C417  1  0.70874700  0.20874700  0.56255900  1
  C  C418  1  0.70874700  0.79125300  0.43744100  1
  C  C419  1  0.29125300  0.20874700  0.43744100  1
  C  C420  1  0.43744100  0.70874700  0.20874700  1
  C  C421  1  0.70874700  0.43744100  0.20874700  1
  C  C422  1  0.70874700  0.70874700  0.93744100  1
  C  C423  1  0.70874700  0.43744100  0.79125300  1
  C  C424  1  0.70874700  0.56255900  0.20874700  1
  C  C425  1  0.29125300  0.43744100  0.20874700  1
  C  C426  1  0.43744100  0.70874700  0.79125300  1
  C  C427  1  0.56255900  0.70874700  0.20874700  1
  C  C428  1  0.43744100  0.29125300  0.20874700  1
  C  C429  1  0.70874700  0.70874700  0.06255900  1
  C  C430  1  0.70874700  0.29125300  0.93744100  1
  C  C431  1  0.29125300  0.70874700  0.93744100  1
  C  C432  1  0.06255900  0.79125300  0.20874700  1
  C  C433  1  0.06255900  0.20874700  0.79125300  1
  C  C434  1  0.93744100  0.79125300  0.79125300  1
  C  C435  1  0.20874700  0.06255900  0.79125300  1
  C  C436  1  0.79125300  0.06255900  0.20874700  1
  C  C437  1  0.79125300  0.93744100  0.79125300  1
  C  C438  1  0.79125300  0.20874700  0.06255900  1
  C  C439  1  0.20874700  0.79125300  0.06255900  1
  C  C440  1  0.79125300  0.79125300  0.93744100  1
  C  C441  1  0.79125300  0.06255900  0.79125300  1
  C  C442  1  0.06255900  0.79125300  0.79125300  1
  C  C443  1  0.79125300  0.79125300  0.06255900  1
  C  C444  1  0.06255900  0.29125300  0.70874700  1
  C  C445  1  0.06255900  0.70874700  0.29125300  1
  C  C446  1  0.93744100  0.29125300  0.29125300  1
  C  C447  1  0.20874700  0.56255900  0.29125300  1
  C  C448  1  0.79125300  0.56255900  0.70874700  1
  C  C449  1  0.79125300  0.43744100  0.29125300  1
  C  C450  1  0.79125300  0.70874700  0.56255900  1
  C  C451  1  0.20874700  0.29125300  0.56255900  1
  C  C452  1  0.79125300  0.29125300  0.43744100  1
  C  C453  1  0.79125300  0.56255900  0.29125300  1
  C  C454  1  0.06255900  0.29125300  0.29125300  1
  C  C455  1  0.79125300  0.29125300  0.56255900  1
  C  C456  1  0.56255900  0.79125300  0.70874700  1
  C  C457  1  0.56255900  0.20874700  0.29125300  1
  C  C458  1  0.43744100  0.79125300  0.29125300  1
  C  C459  1  0.70874700  0.06255900  0.29125300  1
  C  C460  1  0.29125300  0.06255900  0.70874700  1
  C  C461  1  0.29125300  0.93744100  0.29125300  1
  C  C462  1  0.29125300  0.20874700  0.56255900  1
  C  C463  1  0.70874700  0.79125300  0.56255900  1
  C  C464  1  0.29125300  0.79125300  0.43744100  1
  C  C465  1  0.29125300  0.06255900  0.29125300  1
  C  C466  1  0.56255900  0.79125300  0.29125300  1
  C  C467  1  0.29125300  0.79125300  0.56255900  1
  C  C468  1  0.56255900  0.29125300  0.20874700  1
  C  C469  1  0.56255900  0.70874700  0.79125300  1
  C  C470  1  0.43744100  0.29125300  0.79125300  1
  C  C471  1  0.70874700  0.56255900  0.79125300  1
  C  C472  1  0.29125300  0.56255900  0.20874700  1
  C  C473  1  0.29125300  0.43744100  0.79125300  1
  C  C474  1  0.29125300  0.70874700  0.06255900  1
  C  C475  1  0.70874700  0.29125300  0.06255900  1
  C  C476  1  0.29125300  0.29125300  0.93744100  1
  C  C477  1  0.29125300  0.56255900  0.79125300  1
  C  C478  1  0.56255900  0.29125300  0.79125300  1
  C  C479  1  0.29125300  0.29125300  0.06255900  1
  C  C480  1  0.92642300  0.21972700  0.18308700  1
  C  C481  1  0.18308700  0.92642300  0.21972700  1
  C  C482  1  0.21972700  0.18308700  0.92642300  1
  C  C483  1  0.21972700  0.92642300  0.81691300  1
  C  C484  1  0.21972700  0.07357700  0.18308700  1
  C  C485  1  0.78027300  0.92642300  0.18308700  1
  C  C486  1  0.92642300  0.18308700  0.78027300  1
  C  C487  1  0.07357700  0.18308700  0.21972700  1
  C  C488  1  0.92642300  0.81691300  0.21972700  1
  C  C489  1  0.18308700  0.21972700  0.07357700  1
  C  C490  1  0.18308700  0.78027300  0.92642300  1
  C  C491  1  0.81691300  0.21972700  0.92642300  1
  C  C492  1  0.92642300  0.71972700  0.68308700  1
  C  C493  1  0.18308700  0.42642300  0.71972700  1
  C  C494  1  0.21972700  0.68308700  0.42642300  1
  C  C495  1  0.21972700  0.42642300  0.31691300  1
  C  C496  1  0.21972700  0.57357700  0.68308700  1
  C  C497  1  0.78027300  0.42642300  0.68308700  1
  C  C498  1  0.92642300  0.68308700  0.28027300  1
  C  C499  1  0.07357700  0.68308700  0.71972700  1
  C  C500  1  0.92642300  0.31691300  0.71972700  1
  C  C501  1  0.18308700  0.71972700  0.57357700  1
  C  C502  1  0.18308700  0.28027300  0.42642300  1
  C  C503  1  0.81691300  0.71972700  0.42642300  1
  C  C504  1  0.42642300  0.21972700  0.68308700  1
  C  C505  1  0.68308700  0.92642300  0.71972700  1
  C  C506  1  0.71972700  0.18308700  0.42642300  1
  C  C507  1  0.71972700  0.92642300  0.31691300  1
  C  C508  1  0.71972700  0.07357700  0.68308700  1
  C  C509  1  0.28027300  0.92642300  0.68308700  1
  C  C510  1  0.42642300  0.18308700  0.28027300  1
  C  C511  1  0.57357700  0.18308700  0.71972700  1
  C  C512  1  0.42642300  0.81691300  0.71972700  1
  C  C513  1  0.68308700  0.21972700  0.57357700  1
  C  C514  1  0.68308700  0.78027300  0.42642300  1
  C  C515  1  0.31691300  0.21972700  0.42642300  1
  C  C516  1  0.42642300  0.71972700  0.18308700  1
  C  C517  1  0.68308700  0.42642300  0.21972700  1
  C  C518  1  0.71972700  0.68308700  0.92642300  1
  C  C519  1  0.71972700  0.42642300  0.81691300  1
  C  C520  1  0.71972700  0.57357700  0.18308700  1
  C  C521  1  0.28027300  0.42642300  0.18308700  1
  C  C522  1  0.42642300  0.68308700  0.78027300  1
  C  C523  1  0.57357700  0.68308700  0.21972700  1
  C  C524  1  0.42642300  0.31691300  0.21972700  1
  C  C525  1  0.68308700  0.71972700  0.07357700  1
  C  C526  1  0.68308700  0.28027300  0.92642300  1
  C  C527  1  0.31691300  0.71972700  0.92642300  1
  C  C528  1  0.07357700  0.78027300  0.18308700  1
  C  C529  1  0.07357700  0.21972700  0.81691300  1
  C  C530  1  0.92642300  0.78027300  0.81691300  1
  C  C531  1  0.18308700  0.07357700  0.78027300  1
  C  C532  1  0.81691300  0.07357700  0.21972700  1
  C  C533  1  0.81691300  0.92642300  0.78027300  1
  C  C534  1  0.78027300  0.18308700  0.07357700  1
  C  C535  1  0.21972700  0.81691300  0.07357700  1
  C  C536  1  0.78027300  0.81691300  0.92642300  1
  C  C537  1  0.78027300  0.07357700  0.81691300  1
  C  C538  1  0.07357700  0.81691300  0.78027300  1
  C  C539  1  0.81691300  0.78027300  0.07357700  1
  C  C540  1  0.07357700  0.28027300  0.68308700  1
  C  C541  1  0.07357700  0.71972700  0.31691300  1
  C  C542  1  0.92642300  0.28027300  0.31691300  1
  C  C543  1  0.18308700  0.57357700  0.28027300  1
  C  C544  1  0.81691300  0.57357700  0.71972700  1
  C  C545  1  0.81691300  0.42642300  0.28027300  1
  C  C546  1  0.78027300  0.68308700  0.57357700  1
  C  C547  1  0.21972700  0.31691300  0.57357700  1
  C  C548  1  0.78027300  0.31691300  0.42642300  1
  C  C549  1  0.78027300  0.57357700  0.31691300  1
  C  C550  1  0.07357700  0.31691300  0.28027300  1
  C  C551  1  0.81691300  0.28027300  0.57357700  1
  C  C552  1  0.57357700  0.78027300  0.68308700  1
  C  C553  1  0.57357700  0.21972700  0.31691300  1
  C  C554  1  0.42642300  0.78027300  0.31691300  1
  C  C555  1  0.68308700  0.07357700  0.28027300  1
  C  C556  1  0.31691300  0.07357700  0.71972700  1
  C  C557  1  0.31691300  0.92642300  0.28027300  1
  C  C558  1  0.28027300  0.18308700  0.57357700  1
  C  C559  1  0.71972700  0.81691300  0.57357700  1
  C  C560  1  0.28027300  0.81691300  0.42642300  1
  C  C561  1  0.28027300  0.07357700  0.31691300  1
  C  C562  1  0.57357700  0.81691300  0.28027300  1
  C  C563  1  0.31691300  0.78027300  0.57357700  1
  C  C564  1  0.57357700  0.28027300  0.18308700  1
  C  C565  1  0.57357700  0.71972700  0.81691300  1
  C  C566  1  0.42642300  0.28027300  0.81691300  1
  C  C567  1  0.68308700  0.57357700  0.78027300  1
  C  C568  1  0.31691300  0.57357700  0.21972700  1
  C  C569  1  0.31691300  0.42642300  0.78027300  1
  C  C570  1  0.28027300  0.68308700  0.07357700  1
  C  C571  1  0.71972700  0.31691300  0.07357700  1
  C  C572  1  0.28027300  0.31691300  0.92642300  1
  C  C573  1  0.28027300  0.57357700  0.81691300  1
  C  C574  1  0.57357700  0.31691300  0.78027300  1
  C  C575  1  0.31691300  0.28027300  0.07357700  1
  C  C576  1  0.07357700  0.78027300  0.81691300  1
  C  C577  1  0.81691300  0.07357700  0.78027300  1
  C  C578  1  0.78027300  0.81691300  0.07357700  1
  C  C579  1  0.78027300  0.07357700  0.18308700  1
  C  C580  1  0.78027300  0.92642300  0.81691300  1
  C  C581  1  0.21972700  0.07357700  0.81691300  1
  C  C582  1  0.07357700  0.81691300  0.21972700  1
  C  C583  1  0.92642300  0.81691300  0.78027300  1
  C  C584  1  0.07357700  0.18308700  0.78027300  1
  C  C585  1  0.81691300  0.78027300  0.92642300  1
  C  C586  1  0.81691300  0.21972700  0.07357700  1
  C  C587  1  0.18308700  0.78027300  0.07357700  1
  C  C588  1  0.07357700  0.28027300  0.31691300  1
  C  C589  1  0.81691300  0.57357700  0.28027300  1
  C  C590  1  0.78027300  0.31691300  0.57357700  1
  C  C591  1  0.78027300  0.57357700  0.68308700  1
  C  C592  1  0.78027300  0.42642300  0.31691300  1
  C  C593  1  0.21972700  0.57357700  0.31691300  1
  C  C594  1  0.07357700  0.31691300  0.71972700  1
  C  C595  1  0.92642300  0.31691300  0.28027300  1
  C  C596  1  0.07357700  0.68308700  0.28027300  1
  C  C597  1  0.81691300  0.28027300  0.42642300  1
  C  C598  1  0.81691300  0.71972700  0.57357700  1
  C  C599  1  0.18308700  0.28027300  0.57357700  1
  C  C600  1  0.57357700  0.78027300  0.31691300  1
  C  C601  1  0.31691300  0.07357700  0.28027300  1
  C  C602  1  0.28027300  0.81691300  0.57357700  1
  C  C603  1  0.28027300  0.07357700  0.68308700  1
  C  C604  1  0.28027300  0.92642300  0.31691300  1
  C  C605  1  0.71972700  0.07357700  0.31691300  1
  C  C606  1  0.57357700  0.81691300  0.71972700  1
  C  C607  1  0.42642300  0.81691300  0.28027300  1
  C  C608  1  0.57357700  0.18308700  0.28027300  1
  C  C609  1  0.31691300  0.78027300  0.42642300  1
  C  C610  1  0.31691300  0.21972700  0.57357700  1
  C  C611  1  0.68308700  0.78027300  0.57357700  1
  C  C612  1  0.57357700  0.28027300  0.81691300  1
  C  C613  1  0.31691300  0.57357700  0.78027300  1
  C  C614  1  0.28027300  0.31691300  0.07357700  1
  C  C615  1  0.28027300  0.57357700  0.18308700  1
  C  C616  1  0.28027300  0.42642300  0.81691300  1
  C  C617  1  0.71972700  0.57357700  0.81691300  1
  C  C618  1  0.57357700  0.31691300  0.21972700  1
  C  C619  1  0.42642300  0.31691300  0.78027300  1
  C  C620  1  0.57357700  0.68308700  0.78027300  1
  C  C621  1  0.31691300  0.28027300  0.92642300  1
  C  C622  1  0.31691300  0.71972700  0.07357700  1
  C  C623  1  0.68308700  0.28027300  0.07357700  1
  C  C624  1  0.92642300  0.21972700  0.81691300  1
  C  C625  1  0.92642300  0.78027300  0.18308700  1
  C  C626  1  0.07357700  0.21972700  0.18308700  1
  C  C627  1  0.81691300  0.92642300  0.21972700  1
  C  C628  1  0.18308700  0.92642300  0.78027300  1
  C  C629  1  0.18308700  0.07357700  0.21972700  1
  C  C630  1  0.21972700  0.81691300  0.92642300  1
  C  C631  1  0.78027300  0.18308700  0.92642300  1
  C  C632  1  0.21972700  0.18308700  0.07357700  1
  C  C633  1  0.21972700  0.92642300  0.18308700  1
  C  C634  1  0.92642300  0.18308700  0.21972700  1
  C  C635  1  0.18308700  0.21972700  0.92642300  1
  C  C636  1  0.92642300  0.71972700  0.31691300  1
  C  C637  1  0.92642300  0.28027300  0.68308700  1
  C  C638  1  0.07357700  0.71972700  0.68308700  1
  C  C639  1  0.81691300  0.42642300  0.71972700  1
  C  C640  1  0.18308700  0.42642300  0.28027300  1
  C  C641  1  0.18308700  0.57357700  0.71972700  1
  C  C642  1  0.21972700  0.31691300  0.42642300  1
  C  C643  1  0.78027300  0.68308700  0.42642300  1
  C  C644  1  0.21972700  0.68308700  0.57357700  1
  C  C645  1  0.21972700  0.42642300  0.68308700  1
  C  C646  1  0.92642300  0.68308700  0.71972700  1
  C  C647  1  0.18308700  0.71972700  0.42642300  1
  C  C648  1  0.42642300  0.21972700  0.31691300  1
  C  C649  1  0.42642300  0.78027300  0.68308700  1
  C  C650  1  0.57357700  0.21972700  0.68308700  1
  C  C651  1  0.31691300  0.92642300  0.71972700  1
  C  C652  1  0.68308700  0.92642300  0.28027300  1
  C  C653  1  0.68308700  0.07357700  0.71972700  1
  C  C654  1  0.71972700  0.81691300  0.42642300  1
  C  C655  1  0.28027300  0.18308700  0.42642300  1
  C  C656  1  0.71972700  0.18308700  0.57357700  1
  C  C657  1  0.71972700  0.92642300  0.68308700  1
  C  C658  1  0.42642300  0.18308700  0.71972700  1
  C  C659  1  0.68308700  0.21972700  0.42642300  1
  C  C660  1  0.42642300  0.71972700  0.81691300  1
  C  C661  1  0.42642300  0.28027300  0.18308700  1
  C  C662  1  0.57357700  0.71972700  0.18308700  1
  C  C663  1  0.31691300  0.42642300  0.21972700  1
  C  C664  1  0.68308700  0.42642300  0.78027300  1
  C  C665  1  0.68308700  0.57357700  0.21972700  1
  C  C666  1  0.71972700  0.31691300  0.92642300  1
  C  C667  1  0.28027300  0.68308700  0.92642300  1
  C  C668  1  0.71972700  0.68308700  0.07357700  1
  C  C669  1  0.71972700  0.42642300  0.18308700  1
  C  C670  1  0.42642300  0.68308700  0.21972700  1
  C  C671  1  0.68308700  0.71972700  0.92642300  1
  H  H672  1  0.93470000  0.23610000  0.17470000  1
  H  H673  1  0.17470000  0.93470000  0.23610000  1
  H  H674  1  0.23610000  0.17470000  0.93470000  1
  H  H675  1  0.23610000  0.93470000  0.82530000  1
  H  H676  1  0.23610000  0.06530000  0.17470000  1
  H  H677  1  0.76390000  0.93470000  0.17470000  1
  H  H678  1  0.93470000  0.17470000  0.76390000  1
  H  H679  1  0.06530000  0.17470000  0.23610000  1
  H  H680  1  0.93470000  0.82530000  0.23610000  1
  H  H681  1  0.17470000  0.23610000  0.06530000  1
  H  H682  1  0.17470000  0.76390000  0.93470000  1
  H  H683  1  0.82530000  0.23610000  0.93470000  1
  H  H684  1  0.93470000  0.73610000  0.67470000  1
  H  H685  1  0.17470000  0.43470000  0.73610000  1
  H  H686  1  0.23610000  0.67470000  0.43470000  1
  H  H687  1  0.23610000  0.43470000  0.32530000  1
  H  H688  1  0.23610000  0.56530000  0.67470000  1
  H  H689  1  0.76390000  0.43470000  0.67470000  1
  H  H690  1  0.93470000  0.67470000  0.26390000  1
  H  H691  1  0.06530000  0.67470000  0.73610000  1
  H  H692  1  0.93470000  0.32530000  0.73610000  1
  H  H693  1  0.17470000  0.73610000  0.56530000  1
  H  H694  1  0.17470000  0.26390000  0.43470000  1
  H  H695  1  0.82530000  0.73610000  0.43470000  1
  H  H696  1  0.43470000  0.23610000  0.67470000  1
  H  H697  1  0.67470000  0.93470000  0.73610000  1
  H  H698  1  0.73610000  0.17470000  0.43470000  1
  H  H699  1  0.73610000  0.93470000  0.32530000  1
  H  H700  1  0.73610000  0.06530000  0.67470000  1
  H  H701  1  0.26390000  0.93470000  0.67470000  1
  H  H702  1  0.43470000  0.17470000  0.26390000  1
  H  H703  1  0.56530000  0.17470000  0.73610000  1
  H  H704  1  0.43470000  0.82530000  0.73610000  1
  H  H705  1  0.67470000  0.23610000  0.56530000  1
  H  H706  1  0.67470000  0.76390000  0.43470000  1
  H  H707  1  0.32530000  0.23610000  0.43470000  1
  H  H708  1  0.43470000  0.73610000  0.17470000  1
  H  H709  1  0.67470000  0.43470000  0.23610000  1
  H  H710  1  0.73610000  0.67470000  0.93470000  1
  H  H711  1  0.73610000  0.43470000  0.82530000  1
  H  H712  1  0.73610000  0.56530000  0.17470000  1
  H  H713  1  0.26390000  0.43470000  0.17470000  1
  H  H714  1  0.43470000  0.67470000  0.76390000  1
  H  H715  1  0.56530000  0.67470000  0.23610000  1
  H  H716  1  0.43470000  0.32530000  0.23610000  1
  H  H717  1  0.67470000  0.73610000  0.06530000  1
  H  H718  1  0.67470000  0.26390000  0.93470000  1
  H  H719  1  0.32530000  0.73610000  0.93470000  1
  H  H720  1  0.06530000  0.76390000  0.17470000  1
  H  H721  1  0.06530000  0.23610000  0.82530000  1
  H  H722  1  0.93470000  0.76390000  0.82530000  1
  H  H723  1  0.17470000  0.06530000  0.76390000  1
  H  H724  1  0.82530000  0.06530000  0.23610000  1
  H  H725  1  0.82530000  0.93470000  0.76390000  1
  H  H726  1  0.76390000  0.17470000  0.06530000  1
  H  H727  1  0.23610000  0.82530000  0.06530000  1
  H  H728  1  0.76390000  0.82530000  0.93470000  1
  H  H729  1  0.76390000  0.06530000  0.82530000  1
  H  H730  1  0.06530000  0.82530000  0.76390000  1
  H  H731  1  0.82530000  0.76390000  0.06530000  1
  H  H732  1  0.06530000  0.26390000  0.67470000  1
  H  H733  1  0.06530000  0.73610000  0.32530000  1
  H  H734  1  0.93470000  0.26390000  0.32530000  1
  H  H735  1  0.17470000  0.56530000  0.26390000  1
  H  H736  1  0.82530000  0.56530000  0.73610000  1
  H  H737  1  0.82530000  0.43470000  0.26390000  1
  H  H738  1  0.76390000  0.67470000  0.56530000  1
  H  H739  1  0.23610000  0.32530000  0.56530000  1
  H  H740  1  0.76390000  0.32530000  0.43470000  1
  H  H741  1  0.76390000  0.56530000  0.32530000  1
  H  H742  1  0.06530000  0.32530000  0.26390000  1
  H  H743  1  0.82530000  0.26390000  0.56530000  1
  H  H744  1  0.56530000  0.76390000  0.67470000  1
  H  H745  1  0.56530000  0.23610000  0.32530000  1
  H  H746  1  0.43470000  0.76390000  0.32530000  1
  H  H747  1  0.67470000  0.06530000  0.26390000  1
  H  H748  1  0.32530000  0.06530000  0.73610000  1
  H  H749  1  0.32530000  0.93470000  0.26390000  1
  H  H750  1  0.26390000  0.17470000  0.56530000  1
  H  H751  1  0.73610000  0.82530000  0.56530000  1
  H  H752  1  0.26390000  0.82530000  0.43470000  1
  H  H753  1  0.26390000  0.06530000  0.32530000  1
  H  H754  1  0.56530000  0.82530000  0.26390000  1
  H  H755  1  0.32530000  0.76390000  0.56530000  1
  H  H756  1  0.56530000  0.26390000  0.17470000  1
  H  H757  1  0.56530000  0.73610000  0.82530000  1
  H  H758  1  0.43470000  0.26390000  0.82530000  1
  H  H759  1  0.67470000  0.56530000  0.76390000  1
  H  H760  1  0.32530000  0.56530000  0.23610000  1
  H  H761  1  0.32530000  0.43470000  0.76390000  1
  H  H762  1  0.26390000  0.67470000  0.06530000  1
  H  H763  1  0.73610000  0.32530000  0.06530000  1
  H  H764  1  0.26390000  0.32530000  0.93470000  1
  H  H765  1  0.26390000  0.56530000  0.82530000  1
  H  H766  1  0.56530000  0.32530000  0.76390000  1
  H  H767  1  0.32530000  0.26390000  0.06530000  1
  H  H768  1  0.06530000  0.76390000  0.82530000  1
  H  H769  1  0.82530000  0.06530000  0.76390000  1
  H  H770  1  0.76390000  0.82530000  0.06530000  1
  H  H771  1  0.76390000  0.06530000  0.17470000  1
  H  H772  1  0.76390000  0.93470000  0.82530000  1
  H  H773  1  0.23610000  0.06530000  0.82530000  1
  H  H774  1  0.06530000  0.82530000  0.23610000  1
  H  H775  1  0.93470000  0.82530000  0.76390000  1
  H  H776  1  0.06530000  0.17470000  0.76390000  1
  H  H777  1  0.82530000  0.76390000  0.93470000  1
  H  H778  1  0.82530000  0.23610000  0.06530000  1
  H  H779  1  0.17470000  0.76390000  0.06530000  1
  H  H780  1  0.06530000  0.26390000  0.32530000  1
  H  H781  1  0.82530000  0.56530000  0.26390000  1
  H  H782  1  0.76390000  0.32530000  0.56530000  1
  H  H783  1  0.76390000  0.56530000  0.67470000  1
  H  H784  1  0.76390000  0.43470000  0.32530000  1
  H  H785  1  0.23610000  0.56530000  0.32530000  1
  H  H786  1  0.06530000  0.32530000  0.73610000  1
  H  H787  1  0.93470000  0.32530000  0.26390000  1
  H  H788  1  0.06530000  0.67470000  0.26390000  1
  H  H789  1  0.82530000  0.26390000  0.43470000  1
  H  H790  1  0.82530000  0.73610000  0.56530000  1
  H  H791  1  0.17470000  0.26390000  0.56530000  1
  H  H792  1  0.56530000  0.76390000  0.32530000  1
  H  H793  1  0.32530000  0.06530000  0.26390000  1
  H  H794  1  0.26390000  0.82530000  0.56530000  1
  H  H795  1  0.26390000  0.06530000  0.67470000  1
  H  H796  1  0.26390000  0.93470000  0.32530000  1
  H  H797  1  0.73610000  0.06530000  0.32530000  1
  H  H798  1  0.56530000  0.82530000  0.73610000  1
  H  H799  1  0.43470000  0.82530000  0.26390000  1
  H  H800  1  0.56530000  0.17470000  0.26390000  1
  H  H801  1  0.32530000  0.76390000  0.43470000  1
  H  H802  1  0.32530000  0.23610000  0.56530000  1
  H  H803  1  0.67470000  0.76390000  0.56530000  1
  H  H804  1  0.56530000  0.26390000  0.82530000  1
  H  H805  1  0.32530000  0.56530000  0.76390000  1
  H  H806  1  0.26390000  0.32530000  0.06530000  1
  H  H807  1  0.26390000  0.56530000  0.17470000  1
  H  H808  1  0.26390000  0.43470000  0.82530000  1
  H  H809  1  0.73610000  0.56530000  0.82530000  1
  H  H810  1  0.56530000  0.32530000  0.23610000  1
  H  H811  1  0.43470000  0.32530000  0.76390000  1
  H  H812  1  0.56530000  0.67470000  0.76390000  1
  H  H813  1  0.32530000  0.26390000  0.93470000  1
  H  H814  1  0.32530000  0.73610000  0.06530000  1
  H  H815  1  0.67470000  0.26390000  0.06530000  1
  H  H816  1  0.93470000  0.23610000  0.82530000  1
  H  H817  1  0.93470000  0.76390000  0.17470000  1
  H  H818  1  0.06530000  0.23610000  0.17470000  1
  H  H819  1  0.82530000  0.93470000  0.23610000  1
  H  H820  1  0.17470000  0.93470000  0.76390000  1
  H  H821  1  0.17470000  0.06530000  0.23610000  1
  H  H822  1  0.23610000  0.82530000  0.93470000  1
  H  H823  1  0.76390000  0.17470000  0.93470000  1
  H  H824  1  0.23610000  0.17470000  0.06530000  1
  H  H825  1  0.23610000  0.93470000  0.17470000  1
  H  H826  1  0.93470000  0.17470000  0.23610000  1
  H  H827  1  0.17470000  0.23610000  0.93470000  1
  H  H828  1  0.93470000  0.73610000  0.32530000  1
  H  H829  1  0.93470000  0.26390000  0.67470000  1
  H  H830  1  0.06530000  0.73610000  0.67470000  1
  H  H831  1  0.82530000  0.43470000  0.73610000  1
  H  H832  1  0.17470000  0.43470000  0.26390000  1
  H  H833  1  0.17470000  0.56530000  0.73610000  1
  H  H834  1  0.23610000  0.32530000  0.43470000  1
  H  H835  1  0.76390000  0.67470000  0.43470000  1
  H  H836  1  0.23610000  0.67470000  0.56530000  1
  H  H837  1  0.23610000  0.43470000  0.67470000  1
  H  H838  1  0.93470000  0.67470000  0.73610000  1
  H  H839  1  0.17470000  0.73610000  0.43470000  1
  H  H840  1  0.43470000  0.23610000  0.32530000  1
  H  H841  1  0.43470000  0.76390000  0.67470000  1
  H  H842  1  0.56530000  0.23610000  0.67470000  1
  H  H843  1  0.32530000  0.93470000  0.73610000  1
  H  H844  1  0.67470000  0.93470000  0.26390000  1
  H  H845  1  0.67470000  0.06530000  0.73610000  1
  H  H846  1  0.73610000  0.82530000  0.43470000  1
  H  H847  1  0.26390000  0.17470000  0.43470000  1
  H  H848  1  0.73610000  0.17470000  0.56530000  1
  H  H849  1  0.73610000  0.93470000  0.67470000  1
  H  H850  1  0.43470000  0.17470000  0.73610000  1
  H  H851  1  0.67470000  0.23610000  0.43470000  1
  H  H852  1  0.43470000  0.73610000  0.82530000  1
  H  H853  1  0.43470000  0.26390000  0.17470000  1
  H  H854  1  0.56530000  0.73610000  0.17470000  1
  H  H855  1  0.32530000  0.43470000  0.23610000  1
  H  H856  1  0.67470000  0.43470000  0.76390000  1
  H  H857  1  0.67470000  0.56530000  0.23610000  1
  H  H858  1  0.73610000  0.32530000  0.93470000  1
  H  H859  1  0.26390000  0.67470000  0.93470000  1
  H  H860  1  0.73610000  0.67470000  0.06530000  1
  H  H861  1  0.73610000  0.43470000  0.17470000  1
  H  H862  1  0.43470000  0.67470000  0.23610000  1
  H  H863  1  0.67470000  0.73610000  0.93470000  1
  C  C864  1  0.90313300  0.20636700  0.17007700  1
  C  C865  1  0.17007700  0.90313300  0.20636700  1
  C  C866  1  0.20636700  0.17007700  0.90313300  1
  C  C867  1  0.20636700  0.90313300  0.82992300  1
  C  C868  1  0.20636700  0.09686700  0.17007700  1
  C  C869  1  0.79363300  0.90313300  0.17007700  1
  C  C870  1  0.90313300  0.17007700  0.79363300  1
  C  C871  1  0.09686700  0.17007700  0.20636700  1
  C  C872  1  0.90313300  0.82992300  0.20636700  1
  C  C873  1  0.17007700  0.20636700  0.09686700  1
  C  C874  1  0.17007700  0.79363300  0.90313300  1
  C  C875  1  0.82992300  0.20636700  0.90313300  1
  C  C876  1  0.90313300  0.70636700  0.67007700  1
  C  C877  1  0.17007700  0.40313300  0.70636700  1
  C  C878  1  0.20636700  0.67007700  0.40313300  1
  C  C879  1  0.20636700  0.40313300  0.32992300  1
  C  C880  1  0.20636700  0.59686700  0.67007700  1
  C  C881  1  0.79363300  0.40313300  0.67007700  1
  C  C882  1  0.90313300  0.67007700  0.29363300  1
  C  C883  1  0.09686700  0.67007700  0.70636700  1
  C  C884  1  0.90313300  0.32992300  0.70636700  1
  C  C885  1  0.17007700  0.70636700  0.59686700  1
  C  C886  1  0.17007700  0.29363300  0.40313300  1
  C  C887  1  0.82992300  0.70636700  0.40313300  1
  C  C888  1  0.40313300  0.20636700  0.67007700  1
  C  C889  1  0.67007700  0.90313300  0.70636700  1
  C  C890  1  0.70636700  0.17007700  0.40313300  1
  C  C891  1  0.70636700  0.90313300  0.32992300  1
  C  C892  1  0.70636700  0.09686700  0.67007700  1
  C  C893  1  0.29363300  0.90313300  0.67007700  1
  C  C894  1  0.40313300  0.17007700  0.29363300  1
  C  C895  1  0.59686700  0.17007700  0.70636700  1
  C  C896  1  0.40313300  0.82992300  0.70636700  1
  C  C897  1  0.67007700  0.20636700  0.59686700  1
  C  C898  1  0.67007700  0.79363300  0.40313300  1
  C  C899  1  0.32992300  0.20636700  0.40313300  1
  C  C900  1  0.40313300  0.70636700  0.17007700  1
  C  C901  1  0.67007700  0.40313300  0.20636700  1
  C  C902  1  0.70636700  0.67007700  0.90313300  1
  C  C903  1  0.70636700  0.40313300  0.82992300  1
  C  C904  1  0.70636700  0.59686700  0.17007700  1
  C  C905  1  0.29363300  0.40313300  0.17007700  1
  C  C906  1  0.40313300  0.67007700  0.79363300  1
  C  C907  1  0.59686700  0.67007700  0.20636700  1
  C  C908  1  0.40313300  0.32992300  0.20636700  1
  C  C909  1  0.67007700  0.70636700  0.09686700  1
  C  C910  1  0.67007700  0.29363300  0.90313300  1
  C  C911  1  0.32992300  0.70636700  0.90313300  1
  C  C912  1  0.09686700  0.79363300  0.17007700  1
  C  C913  1  0.09686700  0.20636700  0.82992300  1
  C  C914  1  0.90313300  0.79363300  0.82992300  1
  C  C915  1  0.17007700  0.09686700  0.79363300  1
  C  C916  1  0.82992300  0.09686700  0.20636700  1
  C  C917  1  0.82992300  0.90313300  0.79363300  1
  C  C918  1  0.79363300  0.17007700  0.09686700  1
  C  C919  1  0.20636700  0.82992300  0.09686700  1
  C  C920  1  0.79363300  0.82992300  0.90313300  1
  C  C921  1  0.79363300  0.09686700  0.82992300  1
  C  C922  1  0.09686700  0.82992300  0.79363300  1
  C  C923  1  0.82992300  0.79363300  0.09686700  1
  C  C924  1  0.09686700  0.29363300  0.67007700  1
  C  C925  1  0.09686700  0.70636700  0.32992300  1
  C  C926  1  0.90313300  0.29363300  0.32992300  1
  C  C927  1  0.17007700  0.59686700  0.29363300  1
  C  C928  1  0.82992300  0.59686700  0.70636700  1
  C  C929  1  0.82992300  0.40313300  0.29363300  1
  C  C930  1  0.79363300  0.67007700  0.59686700  1
  C  C931  1  0.20636700  0.32992300  0.59686700  1
  C  C932  1  0.79363300  0.32992300  0.40313300  1
  C  C933  1  0.79363300  0.59686700  0.32992300  1
  C  C934  1  0.09686700  0.32992300  0.29363300  1
  C  C935  1  0.82992300  0.29363300  0.59686700  1
  C  C936  1  0.59686700  0.79363300  0.67007700  1
  C  C937  1  0.59686700  0.20636700  0.32992300  1
  C  C938  1  0.40313300  0.79363300  0.32992300  1
  C  C939  1  0.67007700  0.09686700  0.29363300  1
  C  C940  1  0.32992300  0.09686700  0.70636700  1
  C  C941  1  0.32992300  0.90313300  0.29363300  1
  C  C942  1  0.29363300  0.17007700  0.59686700  1
  C  C943  1  0.70636700  0.82992300  0.59686700  1
  C  C944  1  0.29363300  0.82992300  0.40313300  1
  C  C945  1  0.29363300  0.09686700  0.32992300  1
  C  C946  1  0.59686700  0.82992300  0.29363300  1
  C  C947  1  0.32992300  0.79363300  0.59686700  1
  C  C948  1  0.59686700  0.29363300  0.17007700  1
  C  C949  1  0.59686700  0.70636700  0.82992300  1
  C  C950  1  0.40313300  0.29363300  0.82992300  1
  C  C951  1  0.67007700  0.59686700  0.79363300  1
  C  C952  1  0.32992300  0.59686700  0.20636700  1
  C  C953  1  0.32992300  0.40313300  0.79363300  1
  C  C954  1  0.29363300  0.67007700  0.09686700  1
  C  C955  1  0.70636700  0.32992300  0.09686700  1
  C  C956  1  0.29363300  0.32992300  0.90313300  1
  C  C957  1  0.29363300  0.59686700  0.82992300  1
  C  C958  1  0.59686700  0.32992300  0.79363300  1
  C  C959  1  0.32992300  0.29363300  0.09686700  1
  C  C960  1  0.09686700  0.79363300  0.82992300  1
  C  C961  1  0.82992300  0.09686700  0.79363300  1
  C  C962  1  0.79363300  0.82992300  0.09686700  1
  C  C963  1  0.79363300  0.09686700  0.17007700  1
  C  C964  1  0.79363300  0.90313300  0.82992300  1
  C  C965  1  0.20636700  0.09686700  0.82992300  1
  C  C966  1  0.09686700  0.82992300  0.20636700  1
  C  C967  1  0.90313300  0.82992300  0.79363300  1
  C  C968  1  0.09686700  0.17007700  0.79363300  1
  C  C969  1  0.82992300  0.79363300  0.90313300  1
  C  C970  1  0.82992300  0.20636700  0.09686700  1
  C  C971  1  0.17007700  0.79363300  0.09686700  1
  C  C972  1  0.09686700  0.29363300  0.32992300  1
  C  C973  1  0.82992300  0.59686700  0.29363300  1
  C  C974  1  0.79363300  0.32992300  0.59686700  1
  C  C975  1  0.79363300  0.59686700  0.67007700  1
  C  C976  1  0.79363300  0.40313300  0.32992300  1
  C  C977  1  0.20636700  0.59686700  0.32992300  1
  C  C978  1  0.09686700  0.32992300  0.70636700  1
  C  C979  1  0.90313300  0.32992300  0.29363300  1
  C  C980  1  0.09686700  0.67007700  0.29363300  1
  C  C981  1  0.82992300  0.29363300  0.40313300  1
  C  C982  1  0.82992300  0.70636700  0.59686700  1
  C  C983  1  0.17007700  0.29363300  0.59686700  1
  C  C984  1  0.59686700  0.79363300  0.32992300  1
  C  C985  1  0.32992300  0.09686700  0.29363300  1
  C  C986  1  0.29363300  0.82992300  0.59686700  1
  C  C987  1  0.29363300  0.09686700  0.67007700  1
  C  C988  1  0.29363300  0.90313300  0.32992300  1
  C  C989  1  0.70636700  0.09686700  0.32992300  1
  C  C990  1  0.59686700  0.82992300  0.70636700  1
  C  C991  1  0.40313300  0.82992300  0.29363300  1
  C  C992  1  0.59686700  0.17007700  0.29363300  1
  C  C993  1  0.32992300  0.79363300  0.40313300  1
  C  C994  1  0.32992300  0.20636700  0.59686700  1
  C  C995  1  0.67007700  0.79363300  0.59686700  1
  C  C996  1  0.59686700  0.29363300  0.82992300  1
  C  C997  1  0.32992300  0.59686700  0.79363300  1
  C  C998  1  0.29363300  0.32992300  0.09686700  1
  C  C999  1  0.29363300  0.59686700  0.17007700  1
  C  C1000  1  0.29363300  0.40313300  0.82992300  1
  C  C1001  1  0.70636700  0.59686700  0.82992300  1
  C  C1002  1  0.59686700  0.32992300  0.20636700  1
  C  C1003  1  0.40313300  0.32992300  0.79363300  1
  C  C1004  1  0.59686700  0.67007700  0.79363300  1
  C  C1005  1  0.32992300  0.29363300  0.90313300  1
  C  C1006  1  0.32992300  0.70636700  0.09686700  1
  C  C1007  1  0.67007700  0.29363300  0.09686700  1
  C  C1008  1  0.90313300  0.20636700  0.82992300  1
  C  C1009  1  0.90313300  0.79363300  0.17007700  1
  C  C1010  1  0.09686700  0.20636700  0.17007700  1
  C  C1011  1  0.82992300  0.90313300  0.20636700  1
  C  C1012  1  0.17007700  0.90313300  0.79363300  1
  C  C1013  1  0.17007700  0.09686700  0.20636700  1
  C  C1014  1  0.20636700  0.82992300  0.90313300  1
  C  C1015  1  0.79363300  0.17007700  0.90313300  1
  C  C1016  1  0.20636700  0.17007700  0.09686700  1
  C  C1017  1  0.20636700  0.90313300  0.17007700  1
  C  C1018  1  0.90313300  0.17007700  0.20636700  1
  C  C1019  1  0.17007700  0.20636700  0.90313300  1
  C  C1020  1  0.90313300  0.70636700  0.32992300  1
  C  C1021  1  0.90313300  0.29363300  0.67007700  1
  C  C1022  1  0.09686700  0.70636700  0.67007700  1
  C  C1023  1  0.82992300  0.40313300  0.70636700  1
  C  C1024  1  0.17007700  0.40313300  0.29363300  1
  C  C1025  1  0.17007700  0.59686700  0.70636700  1
  C  C1026  1  0.20636700  0.32992300  0.40313300  1
  C  C1027  1  0.79363300  0.67007700  0.40313300  1
  C  C1028  1  0.20636700  0.67007700  0.59686700  1
  C  C1029  1  0.20636700  0.40313300  0.67007700  1
  C  C1030  1  0.90313300  0.67007700  0.70636700  1
  C  C1031  1  0.17007700  0.70636700  0.40313300  1
  C  C1032  1  0.40313300  0.20636700  0.32992300  1
  C  C1033  1  0.40313300  0.79363300  0.67007700  1
  C  C1034  1  0.59686700  0.20636700  0.67007700  1
  C  C1035  1  0.32992300  0.90313300  0.70636700  1
  C  C1036  1  0.67007700  0.90313300  0.29363300  1
  C  C1037  1  0.67007700  0.09686700  0.70636700  1
  C  C1038  1  0.70636700  0.82992300  0.40313300  1
  C  C1039  1  0.29363300  0.17007700  0.40313300  1
  C  C1040  1  0.70636700  0.17007700  0.59686700  1
  C  C1041  1  0.70636700  0.90313300  0.67007700  1
  C  C1042  1  0.40313300  0.17007700  0.70636700  1
  C  C1043  1  0.67007700  0.20636700  0.40313300  1
  C  C1044  1  0.40313300  0.70636700  0.82992300  1
  C  C1045  1  0.40313300  0.29363300  0.17007700  1
  C  C1046  1  0.59686700  0.70636700  0.17007700  1
  C  C1047  1  0.32992300  0.40313300  0.20636700  1
  C  C1048  1  0.67007700  0.40313300  0.79363300  1
  C  C1049  1  0.67007700  0.59686700  0.20636700  1
  C  C1050  1  0.70636700  0.32992300  0.90313300  1
  C  C1051  1  0.29363300  0.67007700  0.90313300  1
  C  C1052  1  0.70636700  0.67007700  0.09686700  1
  C  C1053  1  0.70636700  0.40313300  0.17007700  1
  C  C1054  1  0.40313300  0.67007700  0.20636700  1
  C  C1055  1  0.67007700  0.70636700  0.90313300  1
  H  H1056  1  0.89520000  0.21420000  0.15330000  1
  H  H1057  1  0.15330000  0.89520000  0.21420000  1
  H  H1058  1  0.21420000  0.15330000  0.89520000  1
  H  H1059  1  0.21420000  0.89520000  0.84670000  1
  H  H1060  1  0.21420000  0.10480000  0.15330000  1
  H  H1061  1  0.78580000  0.89520000  0.15330000  1
  H  H1062  1  0.89520000  0.15330000  0.78580000  1
  H  H1063  1  0.10480000  0.15330000  0.21420000  1
  H  H1064  1  0.89520000  0.84670000  0.21420000  1
  H  H1065  1  0.15330000  0.21420000  0.10480000  1
  H  H1066  1  0.15330000  0.78580000  0.89520000  1
  H  H1067  1  0.84670000  0.21420000  0.89520000  1
  H  H1068  1  0.89520000  0.71420000  0.65330000  1
  H  H1069  1  0.15330000  0.39520000  0.71420000  1
  H  H1070  1  0.21420000  0.65330000  0.39520000  1
  H  H1071  1  0.21420000  0.39520000  0.34670000  1
  H  H1072  1  0.21420000  0.60480000  0.65330000  1
  H  H1073  1  0.78580000  0.39520000  0.65330000  1
  H  H1074  1  0.89520000  0.65330000  0.28580000  1
  H  H1075  1  0.10480000  0.65330000  0.71420000  1
  H  H1076  1  0.89520000  0.34670000  0.71420000  1
  H  H1077  1  0.15330000  0.71420000  0.60480000  1
  H  H1078  1  0.15330000  0.28580000  0.39520000  1
  H  H1079  1  0.84670000  0.71420000  0.39520000  1
  H  H1080  1  0.39520000  0.21420000  0.65330000  1
  H  H1081  1  0.65330000  0.89520000  0.71420000  1
  H  H1082  1  0.71420000  0.15330000  0.39520000  1
  H  H1083  1  0.71420000  0.89520000  0.34670000  1
  H  H1084  1  0.71420000  0.10480000  0.65330000  1
  H  H1085  1  0.28580000  0.89520000  0.65330000  1
  H  H1086  1  0.39520000  0.15330000  0.28580000  1
  H  H1087  1  0.60480000  0.15330000  0.71420000  1
  H  H1088  1  0.39520000  0.84670000  0.71420000  1
  H  H1089  1  0.65330000  0.21420000  0.60480000  1
  H  H1090  1  0.65330000  0.78580000  0.39520000  1
  H  H1091  1  0.34670000  0.21420000  0.39520000  1
  H  H1092  1  0.39520000  0.71420000  0.15330000  1
  H  H1093  1  0.65330000  0.39520000  0.21420000  1
  H  H1094  1  0.71420000  0.65330000  0.89520000  1
  H  H1095  1  0.71420000  0.39520000  0.84670000  1
  H  H1096  1  0.71420000  0.60480000  0.15330000  1
  H  H1097  1  0.28580000  0.39520000  0.15330000  1
  H  H1098  1  0.39520000  0.65330000  0.78580000  1
  H  H1099  1  0.60480000  0.65330000  0.21420000  1
  H  H1100  1  0.39520000  0.34670000  0.21420000  1
  H  H1101  1  0.65330000  0.71420000  0.10480000  1
  H  H1102  1  0.65330000  0.28580000  0.89520000  1
  H  H1103  1  0.34670000  0.71420000  0.89520000  1
  H  H1104  1  0.10480000  0.78580000  0.15330000  1
  H  H1105  1  0.10480000  0.21420000  0.84670000  1
  H  H1106  1  0.89520000  0.78580000  0.84670000  1
  H  H1107  1  0.15330000  0.10480000  0.78580000  1
  H  H1108  1  0.84670000  0.10480000  0.21420000  1
  H  H1109  1  0.84670000  0.89520000  0.78580000  1
  H  H1110  1  0.78580000  0.15330000  0.10480000  1
  H  H1111  1  0.21420000  0.84670000  0.10480000  1
  H  H1112  1  0.78580000  0.84670000  0.89520000  1
  H  H1113  1  0.78580000  0.10480000  0.84670000  1
  H  H1114  1  0.10480000  0.84670000  0.78580000  1
  H  H1115  1  0.84670000  0.78580000  0.10480000  1
  H  H1116  1  0.10480000  0.28580000  0.65330000  1
  H  H1117  1  0.10480000  0.71420000  0.34670000  1
  H  H1118  1  0.89520000  0.28580000  0.34670000  1
  H  H1119  1  0.15330000  0.60480000  0.28580000  1
  H  H1120  1  0.84670000  0.60480000  0.71420000  1
  H  H1121  1  0.84670000  0.39520000  0.28580000  1
  H  H1122  1  0.78580000  0.65330000  0.60480000  1
  H  H1123  1  0.21420000  0.34670000  0.60480000  1
  H  H1124  1  0.78580000  0.34670000  0.39520000  1
  H  H1125  1  0.78580000  0.60480000  0.34670000  1
  H  H1126  1  0.10480000  0.34670000  0.28580000  1
  H  H1127  1  0.84670000  0.28580000  0.60480000  1
  H  H1128  1  0.60480000  0.78580000  0.65330000  1
  H  H1129  1  0.60480000  0.21420000  0.34670000  1
  H  H1130  1  0.39520000  0.78580000  0.34670000  1
  H  H1131  1  0.65330000  0.10480000  0.28580000  1
  H  H1132  1  0.34670000  0.10480000  0.71420000  1
  H  H1133  1  0.34670000  0.89520000  0.28580000  1
  H  H1134  1  0.28580000  0.15330000  0.60480000  1
  H  H1135  1  0.71420000  0.84670000  0.60480000  1
  H  H1136  1  0.28580000  0.84670000  0.39520000  1
  H  H1137  1  0.28580000  0.10480000  0.34670000  1
  H  H1138  1  0.60480000  0.84670000  0.28580000  1
  H  H1139  1  0.34670000  0.78580000  0.60480000  1
  H  H1140  1  0.60480000  0.28580000  0.15330000  1
  H  H1141  1  0.60480000  0.71420000  0.84670000  1
  H  H1142  1  0.39520000  0.28580000  0.84670000  1
  H  H1143  1  0.65330000  0.60480000  0.78580000  1
  H  H1144  1  0.34670000  0.60480000  0.21420000  1
  H  H1145  1  0.34670000  0.39520000  0.78580000  1
  H  H1146  1  0.28580000  0.65330000  0.10480000  1
  H  H1147  1  0.71420000  0.34670000  0.10480000  1
  H  H1148  1  0.28580000  0.34670000  0.89520000  1
  H  H1149  1  0.28580000  0.60480000  0.84670000  1
  H  H1150  1  0.60480000  0.34670000  0.78580000  1
  H  H1151  1  0.34670000  0.28580000  0.10480000  1
  H  H1152  1  0.10480000  0.78580000  0.84670000  1
  H  H1153  1  0.84670000  0.10480000  0.78580000  1
  H  H1154  1  0.78580000  0.84670000  0.10480000  1
  H  H1155  1  0.78580000  0.10480000  0.15330000  1
  H  H1156  1  0.78580000  0.89520000  0.84670000  1
  H  H1157  1  0.21420000  0.10480000  0.84670000  1
  H  H1158  1  0.10480000  0.84670000  0.21420000  1
  H  H1159  1  0.89520000  0.84670000  0.78580000  1
  H  H1160  1  0.10480000  0.15330000  0.78580000  1
  H  H1161  1  0.84670000  0.78580000  0.89520000  1
  H  H1162  1  0.84670000  0.21420000  0.10480000  1
  H  H1163  1  0.15330000  0.78580000  0.10480000  1
  H  H1164  1  0.10480000  0.28580000  0.34670000  1
  H  H1165  1  0.84670000  0.60480000  0.28580000  1
  H  H1166  1  0.78580000  0.34670000  0.60480000  1
  H  H1167  1  0.78580000  0.60480000  0.65330000  1
  H  H1168  1  0.78580000  0.39520000  0.34670000  1
  H  H1169  1  0.21420000  0.60480000  0.34670000  1
  H  H1170  1  0.10480000  0.34670000  0.71420000  1
  H  H1171  1  0.89520000  0.34670000  0.28580000  1
  H  H1172  1  0.10480000  0.65330000  0.28580000  1
  H  H1173  1  0.84670000  0.28580000  0.39520000  1
  H  H1174  1  0.84670000  0.71420000  0.60480000  1
  H  H1175  1  0.15330000  0.28580000  0.60480000  1
  H  H1176  1  0.60480000  0.78580000  0.34670000  1
  H  H1177  1  0.34670000  0.10480000  0.28580000  1
  H  H1178  1  0.28580000  0.84670000  0.60480000  1
  H  H1179  1  0.28580000  0.10480000  0.65330000  1
  H  H1180  1  0.28580000  0.89520000  0.34670000  1
  H  H1181  1  0.71420000  0.10480000  0.34670000  1
  H  H1182  1  0.60480000  0.84670000  0.71420000  1
  H  H1183  1  0.39520000  0.84670000  0.28580000  1
  H  H1184  1  0.60480000  0.15330000  0.28580000  1
  H  H1185  1  0.34670000  0.78580000  0.39520000  1
  H  H1186  1  0.34670000  0.21420000  0.60480000  1
  H  H1187  1  0.65330000  0.78580000  0.60480000  1
  H  H1188  1  0.60480000  0.28580000  0.84670000  1
  H  H1189  1  0.34670000  0.60480000  0.78580000  1
  H  H1190  1  0.28580000  0.34670000  0.10480000  1
  H  H1191  1  0.28580000  0.60480000  0.15330000  1
  H  H1192  1  0.28580000  0.39520000  0.84670000  1
  H  H1193  1  0.71420000  0.60480000  0.84670000  1
  H  H1194  1  0.60480000  0.34670000  0.21420000  1
  H  H1195  1  0.39520000  0.34670000  0.78580000  1
  H  H1196  1  0.60480000  0.65330000  0.78580000  1
  H  H1197  1  0.34670000  0.28580000  0.89520000  1
  H  H1198  1  0.34670000  0.71420000  0.10480000  1
  H  H1199  1  0.65330000  0.28580000  0.10480000  1
  H  H1200  1  0.89520000  0.21420000  0.84670000  1
  H  H1201  1  0.89520000  0.78580000  0.15330000  1
  H  H1202  1  0.10480000  0.21420000  0.15330000  1
  H  H1203  1  0.84670000  0.89520000  0.21420000  1
  H  H1204  1  0.15330000  0.89520000  0.78580000  1
  H  H1205  1  0.15330000  0.10480000  0.21420000  1
  H  H1206  1  0.21420000  0.84670000  0.89520000  1
  H  H1207  1  0.78580000  0.15330000  0.89520000  1
  H  H1208  1  0.21420000  0.15330000  0.10480000  1
  H  H1209  1  0.21420000  0.89520000  0.15330000  1
  H  H1210  1  0.89520000  0.15330000  0.21420000  1
  H  H1211  1  0.15330000  0.21420000  0.89520000  1
  H  H1212  1  0.89520000  0.71420000  0.34670000  1
  H  H1213  1  0.89520000  0.28580000  0.65330000  1
  H  H1214  1  0.10480000  0.71420000  0.65330000  1
  H  H1215  1  0.84670000  0.39520000  0.71420000  1
  H  H1216  1  0.15330000  0.39520000  0.28580000  1
  H  H1217  1  0.15330000  0.60480000  0.71420000  1
  H  H1218  1  0.21420000  0.34670000  0.39520000  1
  H  H1219  1  0.78580000  0.65330000  0.39520000  1
  H  H1220  1  0.21420000  0.65330000  0.60480000  1
  H  H1221  1  0.21420000  0.39520000  0.65330000  1
  H  H1222  1  0.89520000  0.65330000  0.71420000  1
  H  H1223  1  0.15330000  0.71420000  0.39520000  1
  H  H1224  1  0.39520000  0.21420000  0.34670000  1
  H  H1225  1  0.39520000  0.78580000  0.65330000  1
  H  H1226  1  0.60480000  0.21420000  0.65330000  1
  H  H1227  1  0.34670000  0.89520000  0.71420000  1
  H  H1228  1  0.65330000  0.89520000  0.28580000  1
  H  H1229  1  0.65330000  0.10480000  0.71420000  1
  H  H1230  1  0.71420000  0.84670000  0.39520000  1
  H  H1231  1  0.28580000  0.15330000  0.39520000  1
  H  H1232  1  0.71420000  0.15330000  0.60480000  1
  H  H1233  1  0.71420000  0.89520000  0.65330000  1
  H  H1234  1  0.39520000  0.15330000  0.71420000  1
  H  H1235  1  0.65330000  0.21420000  0.39520000  1
  H  H1236  1  0.39520000  0.71420000  0.84670000  1
  H  H1237  1  0.39520000  0.28580000  0.15330000  1
  H  H1238  1  0.60480000  0.71420000  0.15330000  1
  H  H1239  1  0.34670000  0.39520000  0.21420000  1
  H  H1240  1  0.65330000  0.39520000  0.78580000  1
  H  H1241  1  0.65330000  0.60480000  0.21420000  1
  H  H1242  1  0.71420000  0.34670000  0.89520000  1
  H  H1243  1  0.28580000  0.65330000  0.89520000  1
  H  H1244  1  0.71420000  0.65330000  0.10480000  1
  H  H1245  1  0.71420000  0.39520000  0.15330000  1
  H  H1246  1  0.39520000  0.65330000  0.21420000  1
  H  H1247  1  0.65330000  0.71420000  0.89520000  1
  C  C1248  1  0.89165900  0.18160700  0.18160700  1
  C  C1249  1  0.18160700  0.89165900  0.18160700  1
  C  C1250  1  0.18160700  0.18160700  0.89165900  1
  C  C1251  1  0.18160700  0.89165900  0.81839300  1
  C  C1252  1  0.18160700  0.10834100  0.18160700  1
  C  C1253  1  0.81839300  0.89165900  0.18160700  1
  C  C1254  1  0.89165900  0.18160700  0.81839300  1
  C  C1255  1  0.10834100  0.18160700  0.18160700  1
  C  C1256  1  0.89165900  0.81839300  0.18160700  1
  C  C1257  1  0.18160700  0.18160700  0.10834100  1
  C  C1258  1  0.18160700  0.81839300  0.89165900  1
  C  C1259  1  0.81839300  0.18160700  0.89165900  1
  C  C1260  1  0.89165900  0.68160700  0.68160700  1
  C  C1261  1  0.18160700  0.39165900  0.68160700  1
  C  C1262  1  0.18160700  0.68160700  0.39165900  1
  C  C1263  1  0.18160700  0.39165900  0.31839300  1
  C  C1264  1  0.18160700  0.60834100  0.68160700  1
  C  C1265  1  0.81839300  0.39165900  0.68160700  1
  C  C1266  1  0.89165900  0.68160700  0.31839300  1
  C  C1267  1  0.10834100  0.68160700  0.68160700  1
  C  C1268  1  0.89165900  0.31839300  0.68160700  1
  C  C1269  1  0.18160700  0.68160700  0.60834100  1
  C  C1270  1  0.18160700  0.31839300  0.39165900  1
  C  C1271  1  0.81839300  0.68160700  0.39165900  1
  C  C1272  1  0.39165900  0.18160700  0.68160700  1
  C  C1273  1  0.68160700  0.89165900  0.68160700  1
  C  C1274  1  0.68160700  0.18160700  0.39165900  1
  C  C1275  1  0.68160700  0.89165900  0.31839300  1
  C  C1276  1  0.68160700  0.10834100  0.68160700  1
  C  C1277  1  0.31839300  0.89165900  0.68160700  1
  C  C1278  1  0.39165900  0.18160700  0.31839300  1
  C  C1279  1  0.60834100  0.18160700  0.68160700  1
  C  C1280  1  0.39165900  0.81839300  0.68160700  1
  C  C1281  1  0.68160700  0.18160700  0.60834100  1
  C  C1282  1  0.68160700  0.81839300  0.39165900  1
  C  C1283  1  0.31839300  0.18160700  0.39165900  1
  C  C1284  1  0.39165900  0.68160700  0.18160700  1
  C  C1285  1  0.68160700  0.39165900  0.18160700  1
  C  C1286  1  0.68160700  0.68160700  0.89165900  1
  C  C1287  1  0.68160700  0.39165900  0.81839300  1
  C  C1288  1  0.68160700  0.60834100  0.18160700  1
  C  C1289  1  0.31839300  0.39165900  0.18160700  1
  C  C1290  1  0.39165900  0.68160700  0.81839300  1
  C  C1291  1  0.60834100  0.68160700  0.18160700  1
  C  C1292  1  0.39165900  0.31839300  0.18160700  1
  C  C1293  1  0.68160700  0.68160700  0.10834100  1
  C  C1294  1  0.68160700  0.31839300  0.89165900  1
  C  C1295  1  0.31839300  0.68160700  0.89165900  1
  C  C1296  1  0.10834100  0.81839300  0.18160700  1
  C  C1297  1  0.10834100  0.18160700  0.81839300  1
  C  C1298  1  0.89165900  0.81839300  0.81839300  1
  C  C1299  1  0.18160700  0.10834100  0.81839300  1
  C  C1300  1  0.81839300  0.10834100  0.18160700  1
  C  C1301  1  0.81839300  0.89165900  0.81839300  1
  C  C1302  1  0.81839300  0.18160700  0.10834100  1
  C  C1303  1  0.18160700  0.81839300  0.10834100  1
  C  C1304  1  0.81839300  0.81839300  0.89165900  1
  C  C1305  1  0.81839300  0.10834100  0.81839300  1
  C  C1306  1  0.10834100  0.81839300  0.81839300  1
  C  C1307  1  0.81839300  0.81839300  0.10834100  1
  C  C1308  1  0.10834100  0.31839300  0.68160700  1
  C  C1309  1  0.10834100  0.68160700  0.31839300  1
  C  C1310  1  0.89165900  0.31839300  0.31839300  1
  C  C1311  1  0.18160700  0.60834100  0.31839300  1
  C  C1312  1  0.81839300  0.60834100  0.68160700  1
  C  C1313  1  0.81839300  0.39165900  0.31839300  1
  C  C1314  1  0.81839300  0.68160700  0.60834100  1
  C  C1315  1  0.18160700  0.31839300  0.60834100  1
  C  C1316  1  0.81839300  0.31839300  0.39165900  1
  C  C1317  1  0.81839300  0.60834100  0.31839300  1
  C  C1318  1  0.10834100  0.31839300  0.31839300  1
  C  C1319  1  0.81839300  0.31839300  0.60834100  1
  C  C1320  1  0.60834100  0.81839300  0.68160700  1
  C  C1321  1  0.60834100  0.18160700  0.31839300  1
  C  C1322  1  0.39165900  0.81839300  0.31839300  1
  C  C1323  1  0.68160700  0.10834100  0.31839300  1
  C  C1324  1  0.31839300  0.10834100  0.68160700  1
  C  C1325  1  0.31839300  0.89165900  0.31839300  1
  C  C1326  1  0.31839300  0.18160700  0.60834100  1
  C  C1327  1  0.68160700  0.81839300  0.60834100  1
  C  C1328  1  0.31839300  0.81839300  0.39165900  1
  C  C1329  1  0.31839300  0.10834100  0.31839300  1
  C  C1330  1  0.60834100  0.81839300  0.31839300  1
  C  C1331  1  0.31839300  0.81839300  0.60834100  1
  C  C1332  1  0.60834100  0.31839300  0.18160700  1
  C  C1333  1  0.60834100  0.68160700  0.81839300  1
  C  C1334  1  0.39165900  0.31839300  0.81839300  1
  C  C1335  1  0.68160700  0.60834100  0.81839300  1
  C  C1336  1  0.31839300  0.60834100  0.18160700  1
  C  C1337  1  0.31839300  0.39165900  0.81839300  1
  C  C1338  1  0.31839300  0.68160700  0.10834100  1
  C  C1339  1  0.68160700  0.31839300  0.10834100  1
  C  C1340  1  0.31839300  0.31839300  0.89165900  1
  C  C1341  1  0.31839300  0.60834100  0.81839300  1
  C  C1342  1  0.60834100  0.31839300  0.81839300  1
  C  C1343  1  0.31839300  0.31839300  0.10834100  1
  C  C1344  1  0.86637900  0.16729800  0.16729800  1
  C  C1345  1  0.16729800  0.86637900  0.16729800  1
  C  C1346  1  0.16729800  0.16729800  0.86637900  1
  C  C1347  1  0.16729800  0.86637900  0.83270200  1
  C  C1348  1  0.16729800  0.13362100  0.16729800  1
  C  C1349  1  0.83270200  0.86637900  0.16729800  1
  C  C1350  1  0.86637900  0.16729800  0.83270200  1
  C  C1351  1  0.13362100  0.16729800  0.16729800  1
  C  C1352  1  0.86637900  0.83270200  0.16729800  1
  C  C1353  1  0.16729800  0.16729800  0.13362100  1
  C  C1354  1  0.16729800  0.83270200  0.86637900  1
  C  C1355  1  0.83270200  0.16729800  0.86637900  1
  C  C1356  1  0.86637900  0.66729800  0.66729800  1
  C  C1357  1  0.16729800  0.36637900  0.66729800  1
  C  C1358  1  0.16729800  0.66729800  0.36637900  1
  C  C1359  1  0.16729800  0.36637900  0.33270200  1
  C  C1360  1  0.16729800  0.63362100  0.66729800  1
  C  C1361  1  0.83270200  0.36637900  0.66729800  1
  C  C1362  1  0.86637900  0.66729800  0.33270200  1
  C  C1363  1  0.13362100  0.66729800  0.66729800  1
  C  C1364  1  0.86637900  0.33270200  0.66729800  1
  C  C1365  1  0.16729800  0.66729800  0.63362100  1
  C  C1366  1  0.16729800  0.33270200  0.36637900  1
  C  C1367  1  0.83270200  0.66729800  0.36637900  1
  C  C1368  1  0.36637900  0.16729800  0.66729800  1
  C  C1369  1  0.66729800  0.86637900  0.66729800  1
  C  C1370  1  0.66729800  0.16729800  0.36637900  1
  C  C1371  1  0.66729800  0.86637900  0.33270200  1
  C  C1372  1  0.66729800  0.13362100  0.66729800  1
  C  C1373  1  0.33270200  0.86637900  0.66729800  1
  C  C1374  1  0.36637900  0.16729800  0.33270200  1
  C  C1375  1  0.63362100  0.16729800  0.66729800  1
  C  C1376  1  0.36637900  0.83270200  0.66729800  1
  C  C1377  1  0.66729800  0.16729800  0.63362100  1
  C  C1378  1  0.66729800  0.83270200  0.36637900  1
  C  C1379  1  0.33270200  0.16729800  0.36637900  1
  C  C1380  1  0.36637900  0.66729800  0.16729800  1
  C  C1381  1  0.66729800  0.36637900  0.16729800  1
  C  C1382  1  0.66729800  0.66729800  0.86637900  1
  C  C1383  1  0.66729800  0.36637900  0.83270200  1
  C  C1384  1  0.66729800  0.63362100  0.16729800  1
  C  C1385  1  0.33270200  0.36637900  0.16729800  1
  C  C1386  1  0.36637900  0.66729800  0.83270200  1
  C  C1387  1  0.63362100  0.66729800  0.16729800  1
  C  C1388  1  0.36637900  0.33270200  0.16729800  1
  C  C1389  1  0.66729800  0.66729800  0.13362100  1
  C  C1390  1  0.66729800  0.33270200  0.86637900  1
  C  C1391  1  0.33270200  0.66729800  0.86637900  1
  C  C1392  1  0.13362100  0.83270200  0.16729800  1
  C  C1393  1  0.13362100  0.16729800  0.83270200  1
  C  C1394  1  0.86637900  0.83270200  0.83270200  1
  C  C1395  1  0.16729800  0.13362100  0.83270200  1
  C  C1396  1  0.83270200  0.13362100  0.16729800  1
  C  C1397  1  0.83270200  0.86637900  0.83270200  1
  C  C1398  1  0.83270200  0.16729800  0.13362100  1
  C  C1399  1  0.16729800  0.83270200  0.13362100  1
  C  C1400  1  0.83270200  0.83270200  0.86637900  1
  C  C1401  1  0.83270200  0.13362100  0.83270200  1
  C  C1402  1  0.13362100  0.83270200  0.83270200  1
  C  C1403  1  0.83270200  0.83270200  0.13362100  1
  C  C1404  1  0.13362100  0.33270200  0.66729800  1
  C  C1405  1  0.13362100  0.66729800  0.33270200  1
  C  C1406  1  0.86637900  0.33270200  0.33270200  1
  C  C1407  1  0.16729800  0.63362100  0.33270200  1
  C  C1408  1  0.83270200  0.63362100  0.66729800  1
  C  C1409  1  0.83270200  0.36637900  0.33270200  1
  C  C1410  1  0.83270200  0.66729800  0.63362100  1
  C  C1411  1  0.16729800  0.33270200  0.63362100  1
  C  C1412  1  0.83270200  0.33270200  0.36637900  1
  C  C1413  1  0.83270200  0.63362100  0.33270200  1
  C  C1414  1  0.13362100  0.33270200  0.33270200  1
  C  C1415  1  0.83270200  0.33270200  0.63362100  1
  C  C1416  1  0.63362100  0.83270200  0.66729800  1
  C  C1417  1  0.63362100  0.16729800  0.33270200  1
  C  C1418  1  0.36637900  0.83270200  0.33270200  1
  C  C1419  1  0.66729800  0.13362100  0.33270200  1
  C  C1420  1  0.33270200  0.13362100  0.66729800  1
  C  C1421  1  0.33270200  0.86637900  0.33270200  1
  C  C1422  1  0.33270200  0.16729800  0.63362100  1
  C  C1423  1  0.66729800  0.83270200  0.63362100  1
  C  C1424  1  0.33270200  0.83270200  0.36637900  1
  C  C1425  1  0.33270200  0.13362100  0.33270200  1
  C  C1426  1  0.63362100  0.83270200  0.33270200  1
  C  C1427  1  0.33270200  0.83270200  0.63362100  1
  C  C1428  1  0.63362100  0.33270200  0.16729800  1
  C  C1429  1  0.63362100  0.66729800  0.83270200  1
  C  C1430  1  0.36637900  0.33270200  0.83270200  1
  C  C1431  1  0.66729800  0.63362100  0.83270200  1
  C  C1432  1  0.33270200  0.63362100  0.16729800  1
  C  C1433  1  0.33270200  0.36637900  0.83270200  1
  C  C1434  1  0.33270200  0.66729800  0.13362100  1
  C  C1435  1  0.66729800  0.33270200  0.13362100  1
  C  C1436  1  0.33270200  0.33270200  0.86637900  1
  C  C1437  1  0.33270200  0.63362100  0.83270200  1
  C  C1438  1  0.63362100  0.33270200  0.83270200  1
  C  C1439  1  0.33270200  0.33270200  0.13362100  1
  N  N1440  1  0.85571400  0.18000800  0.14428600  1
  N  N1441  1  0.14428600  0.85571400  0.18000800  1
  N  N1442  1  0.18000800  0.14428600  0.85571400  1
  N  N1443  1  0.18000800  0.85571400  0.85571400  1
  N  N1444  1  0.18000800  0.14428600  0.14428600  1
  N  N1445  1  0.81999200  0.85571400  0.14428600  1
  N  N1446  1  0.85571400  0.14428600  0.81999200  1
  N  N1447  1  0.14428600  0.14428600  0.18000800  1
  N  N1448  1  0.85571400  0.85571400  0.18000800  1
  N  N1449  1  0.14428600  0.18000800  0.14428600  1
  N  N1450  1  0.14428600  0.81999200  0.85571400  1
  N  N1451  1  0.85571400  0.18000800  0.85571400  1
  N  N1452  1  0.85571400  0.68000800  0.64428600  1
  N  N1453  1  0.14428600  0.35571400  0.68000800  1
  N  N1454  1  0.18000800  0.64428600  0.35571400  1
  N  N1455  1  0.18000800  0.35571400  0.35571400  1
  N  N1456  1  0.18000800  0.64428600  0.64428600  1
  N  N1457  1  0.81999200  0.35571400  0.64428600  1
  N  N1458  1  0.85571400  0.64428600  0.31999200  1
  N  N1459  1  0.14428600  0.64428600  0.68000800  1
  N  N1460  1  0.85571400  0.35571400  0.68000800  1
  N  N1461  1  0.14428600  0.68000800  0.64428600  1
  N  N1462  1  0.14428600  0.31999200  0.35571400  1
  N  N1463  1  0.85571400  0.68000800  0.35571400  1
  N  N1464  1  0.35571400  0.18000800  0.64428600  1
  N  N1465  1  0.64428600  0.85571400  0.68000800  1
  N  N1466  1  0.68000800  0.14428600  0.35571400  1
  N  N1467  1  0.68000800  0.85571400  0.35571400  1
  N  N1468  1  0.68000800  0.14428600  0.64428600  1
  N  N1469  1  0.31999200  0.85571400  0.64428600  1
  N  N1470  1  0.35571400  0.14428600  0.31999200  1
  N  N1471  1  0.64428600  0.14428600  0.68000800  1
  N  N1472  1  0.35571400  0.85571400  0.68000800  1
  N  N1473  1  0.64428600  0.18000800  0.64428600  1
  N  N1474  1  0.64428600  0.81999200  0.35571400  1
  N  N1475  1  0.35571400  0.18000800  0.35571400  1
  N  N1476  1  0.35571400  0.68000800  0.14428600  1
  N  N1477  1  0.64428600  0.35571400  0.18000800  1
  N  N1478  1  0.68000800  0.64428600  0.85571400  1
  N  N1479  1  0.68000800  0.35571400  0.85571400  1
  N  N1480  1  0.68000800  0.64428600  0.14428600  1
  N  N1481  1  0.31999200  0.35571400  0.14428600  1
  N  N1482  1  0.35571400  0.64428600  0.81999200  1
  N  N1483  1  0.64428600  0.64428600  0.18000800  1
  N  N1484  1  0.35571400  0.35571400  0.18000800  1
  N  N1485  1  0.64428600  0.68000800  0.14428600  1
  N  N1486  1  0.64428600  0.31999200  0.85571400  1
  N  N1487  1  0.35571400  0.68000800  0.85571400  1
  N  N1488  1  0.14428600  0.81999200  0.14428600  1
  N  N1489  1  0.14428600  0.18000800  0.85571400  1
  N  N1490  1  0.85571400  0.81999200  0.85571400  1
  N  N1491  1  0.14428600  0.14428600  0.81999200  1
  N  N1492  1  0.85571400  0.14428600  0.18000800  1
  N  N1493  1  0.85571400  0.85571400  0.81999200  1
  N  N1494  1  0.81999200  0.14428600  0.14428600  1
  N  N1495  1  0.18000800  0.85571400  0.14428600  1
  N  N1496  1  0.81999200  0.85571400  0.85571400  1
  N  N1497  1  0.81999200  0.14428600  0.85571400  1
  N  N1498  1  0.14428600  0.85571400  0.81999200  1
  N  N1499  1  0.85571400  0.81999200  0.14428600  1
  N  N1500  1  0.14428600  0.31999200  0.64428600  1
  N  N1501  1  0.14428600  0.68000800  0.35571400  1
  N  N1502  1  0.85571400  0.31999200  0.35571400  1
  N  N1503  1  0.14428600  0.64428600  0.31999200  1
  N  N1504  1  0.85571400  0.64428600  0.68000800  1
  N  N1505  1  0.85571400  0.35571400  0.31999200  1
  N  N1506  1  0.81999200  0.64428600  0.64428600  1
  N  N1507  1  0.18000800  0.35571400  0.64428600  1
  N  N1508  1  0.81999200  0.35571400  0.35571400  1
  N  N1509  1  0.81999200  0.64428600  0.35571400  1
  N  N1510  1  0.14428600  0.35571400  0.31999200  1
  N  N1511  1  0.85571400  0.31999200  0.64428600  1
  N  N1512  1  0.64428600  0.81999200  0.64428600  1
  N  N1513  1  0.64428600  0.18000800  0.35571400  1
  N  N1514  1  0.35571400  0.81999200  0.35571400  1
  N  N1515  1  0.64428600  0.14428600  0.31999200  1
  N  N1516  1  0.35571400  0.14428600  0.68000800  1
  N  N1517  1  0.35571400  0.85571400  0.31999200  1
  N  N1518  1  0.31999200  0.14428600  0.64428600  1
  N  N1519  1  0.68000800  0.85571400  0.64428600  1
  N  N1520  1  0.31999200  0.85571400  0.35571400  1
  N  N1521  1  0.31999200  0.14428600  0.35571400  1
  N  N1522  1  0.64428600  0.85571400  0.31999200  1
  N  N1523  1  0.35571400  0.81999200  0.64428600  1
  N  N1524  1  0.64428600  0.31999200  0.14428600  1
  N  N1525  1  0.64428600  0.68000800  0.85571400  1
  N  N1526  1  0.35571400  0.31999200  0.85571400  1
  N  N1527  1  0.64428600  0.64428600  0.81999200  1
  N  N1528  1  0.35571400  0.64428600  0.18000800  1
  N  N1529  1  0.35571400  0.35571400  0.81999200  1
  N  N1530  1  0.31999200  0.64428600  0.14428600  1
  N  N1531  1  0.68000800  0.35571400  0.14428600  1
  N  N1532  1  0.31999200  0.35571400  0.85571400  1
  N  N1533  1  0.31999200  0.64428600  0.85571400  1
  N  N1534  1  0.64428600  0.35571400  0.81999200  1
  N  N1535  1  0.35571400  0.31999200  0.14428600  1
