# generated using pymatgen
data_NiH10C20NO5
_symmetry_space_group_name_H-M   'P 1'
_cell_length_a   45.92050000
_cell_length_b   45.92050000
_cell_length_c   45.92050000
_cell_angle_alpha   90.00000000
_cell_angle_beta   90.00000000
_cell_angle_gamma   90.00000000
_symmetry_Int_Tables_number   1
_chemical_formula_structural   NiH10C20NO5
_chemical_formula_sum   'Ni48 H480 C960 N48 O240'
_cell_volume   96832.20569204
_cell_formula_units_Z   48
loop_
 _symmetry_equiv_pos_site_id
 _symmetry_equiv_pos_as_xyz
  1  'x, y, z'
loop_
 _atom_site_type_symbol
 _atom_site_label
 _atom_site_symmetry_multiplicity
 _atom_site_fract_x
 _atom_site_fract_y
 _atom_site_fract_z
 _atom_site_occupancy
  Ni  Ni0  1  0.14853500  0.47931500  0.97312500  1
  Ni  Ni1  1  0.35146500  0.52068500  0.47312500  1
  Ni  Ni2  1  0.85146500  0.97931500  0.52687500  1
  Ni  Ni3  1  0.64853500  0.02068500  0.02687500  1
  Ni  Ni4  1  0.97312500  0.14853500  0.47931500  1
  Ni  Ni5  1  0.47312500  0.35146500  0.52068500  1
  Ni  Ni6  1  0.52687500  0.85146500  0.97931500  1
  Ni  Ni7  1  0.02687500  0.64853500  0.02068500  1
  Ni  Ni8  1  0.47931500  0.97312500  0.14853500  1
  Ni  Ni9  1  0.52068500  0.47312500  0.35146500  1
  Ni  Ni10  1  0.97931500  0.52687500  0.85146500  1
  Ni  Ni11  1  0.02068500  0.02687500  0.64853500  1
  Ni  Ni12  1  0.85146500  0.52068500  0.02687500  1
  Ni  Ni13  1  0.64853500  0.47931500  0.52687500  1
  Ni  Ni14  1  0.14853500  0.02068500  0.47312500  1
  Ni  Ni15  1  0.35146500  0.97931500  0.97312500  1
  Ni  Ni16  1  0.02687500  0.85146500  0.52068500  1
  Ni  Ni17  1  0.52687500  0.64853500  0.47931500  1
  Ni  Ni18  1  0.47312500  0.14853500  0.02068500  1
  Ni  Ni19  1  0.97312500  0.35146500  0.97931500  1
  Ni  Ni20  1  0.52068500  0.02687500  0.85146500  1
  Ni  Ni21  1  0.47931500  0.52687500  0.64853500  1
  Ni  Ni22  1  0.02068500  0.47312500  0.14853500  1
  Ni  Ni23  1  0.97931500  0.97312500  0.35146500  1
  Ni  Ni24  1  0.20524500  0.47056600  0.96309300  1
  Ni  Ni25  1  0.29475500  0.52943400  0.46309300  1
  Ni  Ni26  1  0.79475500  0.97056600  0.53690700  1
  Ni  Ni27  1  0.70524500  0.02943400  0.03690700  1
  Ni  Ni28  1  0.96309300  0.20524500  0.47056600  1
  Ni  Ni29  1  0.46309300  0.29475500  0.52943400  1
  Ni  Ni30  1  0.53690700  0.79475500  0.97056600  1
  Ni  Ni31  1  0.03690700  0.70524500  0.02943400  1
  Ni  Ni32  1  0.47056600  0.96309300  0.20524500  1
  Ni  Ni33  1  0.52943400  0.46309300  0.29475500  1
  Ni  Ni34  1  0.97056600  0.53690700  0.79475500  1
  Ni  Ni35  1  0.02943400  0.03690700  0.70524500  1
  Ni  Ni36  1  0.79475500  0.52943400  0.03690700  1
  Ni  Ni37  1  0.70524500  0.47056600  0.53690700  1
  Ni  Ni38  1  0.20524500  0.02943400  0.46309300  1
  Ni  Ni39  1  0.29475500  0.97056600  0.96309300  1
  Ni  Ni40  1  0.03690700  0.79475500  0.52943400  1
  Ni  Ni41  1  0.53690700  0.70524500  0.47056600  1
  Ni  Ni42  1  0.46309300  0.20524500  0.02943400  1
  Ni  Ni43  1  0.96309300  0.29475500  0.97056600  1
  Ni  Ni44  1  0.52943400  0.03690700  0.79475500  1
  Ni  Ni45  1  0.47056600  0.53690700  0.70524500  1
  Ni  Ni46  1  0.02943400  0.46309300  0.20524500  1
  Ni  Ni47  1  0.97056600  0.96309300  0.29475500  1
  O  O48  1  0.15713000  0.47322000  0.01323000  1
  O  O49  1  0.34287000  0.52678000  0.51323000  1
  O  O50  1  0.84287000  0.97322000  0.48677000  1
  O  O51  1  0.65713000  0.02678000  0.98677000  1
  O  O52  1  0.01323000  0.15713000  0.47322000  1
  O  O53  1  0.51323000  0.34287000  0.52678000  1
  O  O54  1  0.48677000  0.84287000  0.97322000  1
  O  O55  1  0.98677000  0.65713000  0.02678000  1
  O  O56  1  0.47322000  0.01323000  0.15713000  1
  O  O57  1  0.52678000  0.51323000  0.34287000  1
  O  O58  1  0.97322000  0.48677000  0.84287000  1
  O  O59  1  0.02678000  0.98677000  0.65713000  1
  O  O60  1  0.84287000  0.52678000  0.98677000  1
  O  O61  1  0.65713000  0.47322000  0.48677000  1
  O  O62  1  0.15713000  0.02678000  0.51323000  1
  O  O63  1  0.34287000  0.97322000  0.01323000  1
  O  O64  1  0.98677000  0.84287000  0.52678000  1
  O  O65  1  0.48677000  0.65713000  0.47322000  1
  O  O66  1  0.51323000  0.15713000  0.02678000  1
  O  O67  1  0.01323000  0.34287000  0.97322000  1
  O  O68  1  0.52678000  0.98677000  0.84287000  1
  O  O69  1  0.47322000  0.48677000  0.65713000  1
  O  O70  1  0.02678000  0.51323000  0.15713000  1
  O  O71  1  0.97322000  0.01323000  0.34287000  1
  O  O72  1  0.20753000  0.46993000  0.00785000  1
  O  O73  1  0.29247000  0.53007000  0.50785000  1
  O  O74  1  0.79247000  0.96993000  0.49215000  1
  O  O75  1  0.70753000  0.03007000  0.99215000  1
  O  O76  1  0.00785000  0.20753000  0.46993000  1
  O  O77  1  0.50785000  0.29247000  0.53007000  1
  O  O78  1  0.49215000  0.79247000  0.96993000  1
  O  O79  1  0.99215000  0.70753000  0.03007000  1
  O  O80  1  0.46993000  0.00785000  0.20753000  1
  O  O81  1  0.53007000  0.50785000  0.29247000  1
  O  O82  1  0.96993000  0.49215000  0.79247000  1
  O  O83  1  0.03007000  0.99215000  0.70753000  1
  O  O84  1  0.79247000  0.53007000  0.99215000  1
  O  O85  1  0.70753000  0.46993000  0.49215000  1
  O  O86  1  0.20753000  0.03007000  0.50785000  1
  O  O87  1  0.29247000  0.96993000  0.00785000  1
  O  O88  1  0.99215000  0.79247000  0.53007000  1
  O  O89  1  0.49215000  0.70753000  0.46993000  1
  O  O90  1  0.50785000  0.20753000  0.03007000  1
  O  O91  1  0.00785000  0.29247000  0.96993000  1
  O  O92  1  0.53007000  0.99215000  0.79247000  1
  O  O93  1  0.46993000  0.49215000  0.70753000  1
  O  O94  1  0.03007000  0.50785000  0.20753000  1
  O  O95  1  0.96993000  0.00785000  0.29247000  1
  O  O96  1  0.35402000  0.51582000  0.43073000  1
  O  O97  1  0.14598000  0.48418000  0.93073000  1
  O  O98  1  0.64598000  0.01582000  0.06927000  1
  O  O99  1  0.85402000  0.98418000  0.56927000  1
  O  O100  1  0.43073000  0.35402000  0.51582000  1
  O  O101  1  0.93073000  0.14598000  0.48418000  1
  O  O102  1  0.06927000  0.64598000  0.01582000  1
  O  O103  1  0.56927000  0.85402000  0.98418000  1
  O  O104  1  0.51582000  0.43073000  0.35402000  1
  O  O105  1  0.48418000  0.93073000  0.14598000  1
  O  O106  1  0.01582000  0.06927000  0.64598000  1
  O  O107  1  0.98418000  0.56927000  0.85402000  1
  O  O108  1  0.64598000  0.48418000  0.56927000  1
  O  O109  1  0.85402000  0.51582000  0.06927000  1
  O  O110  1  0.35402000  0.98418000  0.93073000  1
  O  O111  1  0.14598000  0.01582000  0.43073000  1
  O  O112  1  0.56927000  0.64598000  0.48418000  1
  O  O113  1  0.06927000  0.85402000  0.51582000  1
  O  O114  1  0.93073000  0.35402000  0.98418000  1
  O  O115  1  0.43073000  0.14598000  0.01582000  1
  O  O116  1  0.48418000  0.56927000  0.64598000  1
  O  O117  1  0.51582000  0.06927000  0.85402000  1
  O  O118  1  0.98418000  0.93073000  0.35402000  1
  O  O119  1  0.01582000  0.43073000  0.14598000  1
  O  O120  1  0.30333000  0.52493000  0.42253000  1
  O  O121  1  0.19667000  0.47507000  0.92253000  1
  O  O122  1  0.69667000  0.02493000  0.07747000  1
  O  O123  1  0.80333000  0.97507000  0.57747000  1
  O  O124  1  0.42253000  0.30333000  0.52493000  1
  O  O125  1  0.92253000  0.19667000  0.47507000  1
  O  O126  1  0.07747000  0.69667000  0.02493000  1
  O  O127  1  0.57747000  0.80333000  0.97507000  1
  O  O128  1  0.52493000  0.42253000  0.30333000  1
  O  O129  1  0.47507000  0.92253000  0.19667000  1
  O  O130  1  0.02493000  0.07747000  0.69667000  1
  O  O131  1  0.97507000  0.57747000  0.80333000  1
  O  O132  1  0.69667000  0.47507000  0.57747000  1
  O  O133  1  0.80333000  0.52493000  0.07747000  1
  O  O134  1  0.30333000  0.97507000  0.92253000  1
  O  O135  1  0.19667000  0.02493000  0.42253000  1
  O  O136  1  0.57747000  0.69667000  0.47507000  1
  O  O137  1  0.07747000  0.80333000  0.52493000  1
  O  O138  1  0.92253000  0.30333000  0.97507000  1
  O  O139  1  0.42253000  0.19667000  0.02493000  1
  O  O140  1  0.47507000  0.57747000  0.69667000  1
  O  O141  1  0.52493000  0.07747000  0.80333000  1
  O  O142  1  0.97507000  0.92253000  0.30333000  1
  O  O143  1  0.02493000  0.42253000  0.19667000  1
  O  O144  1  0.48023000  0.47702000  0.34193000  1
  O  O145  1  0.01977000  0.52298000  0.84193000  1
  O  O146  1  0.51977000  0.97702000  0.15807000  1
  O  O147  1  0.98023000  0.02298000  0.65807000  1
  O  O148  1  0.34193000  0.48023000  0.47702000  1
  O  O149  1  0.84193000  0.01977000  0.52298000  1
  O  O150  1  0.15807000  0.51977000  0.97702000  1
  O  O151  1  0.65807000  0.98023000  0.02298000  1
  O  O152  1  0.47702000  0.34193000  0.48023000  1
  O  O153  1  0.52298000  0.84193000  0.01977000  1
  O  O154  1  0.97702000  0.15807000  0.51977000  1
  O  O155  1  0.02298000  0.65807000  0.98023000  1
  O  O156  1  0.51977000  0.52298000  0.65807000  1
  O  O157  1  0.98023000  0.47702000  0.15807000  1
  O  O158  1  0.48023000  0.02298000  0.84193000  1
  O  O159  1  0.01977000  0.97702000  0.34193000  1
  O  O160  1  0.65807000  0.51977000  0.52298000  1
  O  O161  1  0.15807000  0.98023000  0.47702000  1
  O  O162  1  0.84193000  0.48023000  0.02298000  1
  O  O163  1  0.34193000  0.01977000  0.97702000  1
  O  O164  1  0.52298000  0.65807000  0.51977000  1
  O  O165  1  0.47702000  0.15807000  0.98023000  1
  O  O166  1  0.02298000  0.84193000  0.48023000  1
  O  O167  1  0.97702000  0.34193000  0.01977000  1
  O  O168  1  0.48632000  0.46472000  0.29142000  1
  O  O169  1  0.01368000  0.53528000  0.79142000  1
  O  O170  1  0.51368000  0.96472000  0.20858000  1
  O  O171  1  0.98632000  0.03528000  0.70858000  1
  O  O172  1  0.29142000  0.48632000  0.46472000  1
  O  O173  1  0.79142000  0.01368000  0.53528000  1
  O  O174  1  0.20858000  0.51368000  0.96472000  1
  O  O175  1  0.70858000  0.98632000  0.03528000  1
  O  O176  1  0.46472000  0.29142000  0.48632000  1
  O  O177  1  0.53528000  0.79142000  0.01368000  1
  O  O178  1  0.96472000  0.20858000  0.51368000  1
  O  O179  1  0.03528000  0.70858000  0.98632000  1
  O  O180  1  0.51368000  0.53528000  0.70858000  1
  O  O181  1  0.98632000  0.46472000  0.20858000  1
  O  O182  1  0.48632000  0.03528000  0.79142000  1
  O  O183  1  0.01368000  0.96472000  0.29142000  1
  O  O184  1  0.70858000  0.51368000  0.53528000  1
  O  O185  1  0.20858000  0.98632000  0.46472000  1
  O  O186  1  0.79142000  0.48632000  0.03528000  1
  O  O187  1  0.29142000  0.01368000  0.96472000  1
  O  O188  1  0.53528000  0.70858000  0.51368000  1
  O  O189  1  0.46472000  0.20858000  0.98632000  1
  O  O190  1  0.03528000  0.79142000  0.48632000  1
  O  O191  1  0.96472000  0.29142000  0.01368000  1
  O  O192  1  0.06342000  0.46483000  0.14493000  1
  O  O193  1  0.43658000  0.53517000  0.64493000  1
  O  O194  1  0.93658000  0.96483000  0.35507000  1
  O  O195  1  0.56342000  0.03517000  0.85507000  1
  O  O196  1  0.14493000  0.06342000  0.46483000  1
  O  O197  1  0.64493000  0.43658000  0.53517000  1
  O  O198  1  0.35507000  0.93658000  0.96483000  1
  O  O199  1  0.85507000  0.56342000  0.03517000  1
  O  O200  1  0.46483000  0.14493000  0.06342000  1
  O  O201  1  0.53517000  0.64493000  0.43658000  1
  O  O202  1  0.96483000  0.35507000  0.93658000  1
  O  O203  1  0.03517000  0.85507000  0.56342000  1
  O  O204  1  0.93658000  0.53517000  0.85507000  1
  O  O205  1  0.56342000  0.46483000  0.35507000  1
  O  O206  1  0.06342000  0.03517000  0.64493000  1
  O  O207  1  0.43658000  0.96483000  0.14493000  1
  O  O208  1  0.85507000  0.93658000  0.53517000  1
  O  O209  1  0.35507000  0.56342000  0.46483000  1
  O  O210  1  0.64493000  0.06342000  0.03517000  1
  O  O211  1  0.14493000  0.43658000  0.96483000  1
  O  O212  1  0.53517000  0.85507000  0.93658000  1
  O  O213  1  0.46483000  0.35507000  0.56342000  1
  O  O214  1  0.03517000  0.64493000  0.06342000  1
  O  O215  1  0.96483000  0.14493000  0.43658000  1
  O  O216  1  0.07163000  0.46143000  0.19483000  1
  O  O217  1  0.42837000  0.53857000  0.69483000  1
  O  O218  1  0.92837000  0.96143000  0.30517000  1
  O  O219  1  0.57163000  0.03857000  0.80517000  1
  O  O220  1  0.19483000  0.07163000  0.46143000  1
  O  O221  1  0.69483000  0.42837000  0.53857000  1
  O  O222  1  0.30517000  0.92837000  0.96143000  1
  O  O223  1  0.80517000  0.57163000  0.03857000  1
  O  O224  1  0.46143000  0.19483000  0.07163000  1
  O  O225  1  0.53857000  0.69483000  0.42837000  1
  O  O226  1  0.96143000  0.30517000  0.92837000  1
  O  O227  1  0.03857000  0.80517000  0.57163000  1
  O  O228  1  0.92837000  0.53857000  0.80517000  1
  O  O229  1  0.57163000  0.46143000  0.30517000  1
  O  O230  1  0.07163000  0.03857000  0.69483000  1
  O  O231  1  0.42837000  0.96143000  0.19483000  1
  O  O232  1  0.80517000  0.92837000  0.53857000  1
  O  O233  1  0.30517000  0.57163000  0.46143000  1
  O  O234  1  0.69483000  0.07163000  0.03857000  1
  O  O235  1  0.19483000  0.42837000  0.96143000  1
  O  O236  1  0.53857000  0.80517000  0.92837000  1
  O  O237  1  0.46143000  0.30517000  0.57163000  1
  O  O238  1  0.03857000  0.69483000  0.07163000  1
  O  O239  1  0.96143000  0.19483000  0.42837000  1
  N  N288  1  0.35024000  0.49034000  0.29784000  1
  N  N289  1  0.14976000  0.50966000  0.79784000  1
  N  N290  1  0.64976000  0.99034000  0.20216000  1
  N  N291  1  0.85024000  0.00966000  0.70216000  1
  N  N292  1  0.29784000  0.35024000  0.49034000  1
  N  N293  1  0.79784000  0.14976000  0.50966000  1
  N  N294  1  0.20216000  0.64976000  0.99034000  1
  N  N295  1  0.70216000  0.85024000  0.00966000  1
  N  N296  1  0.49034000  0.29784000  0.35024000  1
  N  N297  1  0.50966000  0.79784000  0.14976000  1
  N  N298  1  0.99034000  0.20216000  0.64976000  1
  N  N299  1  0.00966000  0.70216000  0.85024000  1
  N  N300  1  0.64976000  0.50966000  0.70216000  1
  N  N301  1  0.85024000  0.49034000  0.20216000  1
  N  N302  1  0.35024000  0.00966000  0.79784000  1
  N  N303  1  0.14976000  0.99034000  0.29784000  1
  N  N304  1  0.70216000  0.64976000  0.50966000  1
  N  N305  1  0.20216000  0.85024000  0.49034000  1
  N  N306  1  0.79784000  0.35024000  0.00966000  1
  N  N307  1  0.29784000  0.14976000  0.99034000  1
  N  N308  1  0.50966000  0.70216000  0.64976000  1
  N  N309  1  0.49034000  0.20216000  0.85024000  1
  N  N310  1  0.00966000  0.79784000  0.35024000  1
  N  N311  1  0.99034000  0.29784000  0.14976000  1
  N  N312  1  0.20024000  0.45914000  0.14444000  1
  N  N313  1  0.29976000  0.54086000  0.64444000  1
  N  N314  1  0.79976000  0.95914000  0.35556000  1
  N  N315  1  0.70024000  0.04086000  0.85556000  1
  N  N316  1  0.14444000  0.20024000  0.45914000  1
  N  N317  1  0.64444000  0.29976000  0.54086000  1
  N  N318  1  0.35556000  0.79976000  0.95914000  1
  N  N319  1  0.85556000  0.70024000  0.04086000  1
  N  N320  1  0.45914000  0.14444000  0.20024000  1
  N  N321  1  0.54086000  0.64444000  0.29976000  1
  N  N322  1  0.95914000  0.35556000  0.79976000  1
  N  N323  1  0.04086000  0.85556000  0.70024000  1
  N  N324  1  0.79976000  0.54086000  0.85556000  1
  N  N325  1  0.70024000  0.45914000  0.35556000  1
  N  N326  1  0.20024000  0.04086000  0.64444000  1
  N  N327  1  0.29976000  0.95914000  0.14444000  1
  N  N328  1  0.85556000  0.79976000  0.54086000  1
  N  N329  1  0.35556000  0.70024000  0.45914000  1
  N  N330  1  0.64444000  0.20024000  0.04086000  1
  N  N331  1  0.14444000  0.29976000  0.95914000  1
  N  N332  1  0.54086000  0.85556000  0.79976000  1
  N  N333  1  0.45914000  0.35556000  0.70024000  1
  N  N334  1  0.04086000  0.64444000  0.20024000  1
  N  N335  1  0.95914000  0.14444000  0.29976000  1
  C  C336  1  0.47144000  0.47365000  0.31384000  1
  C  C337  1  0.02856000  0.52635000  0.81384000  1
  C  C338  1  0.52856000  0.97365000  0.18616000  1
  C  C339  1  0.97144000  0.02635000  0.68616000  1
  C  C340  1  0.31384000  0.47144000  0.47365000  1
  C  C341  1  0.81384000  0.02856000  0.52635000  1
  C  C342  1  0.18616000  0.52856000  0.97365000  1
  C  C343  1  0.68616000  0.97144000  0.02635000  1
  C  C344  1  0.47365000  0.31384000  0.47144000  1
  C  C345  1  0.52635000  0.81384000  0.02856000  1
  C  C346  1  0.97365000  0.18616000  0.52856000  1
  C  C347  1  0.02635000  0.68616000  0.97144000  1
  C  C348  1  0.52856000  0.52635000  0.68616000  1
  C  C349  1  0.97144000  0.47365000  0.18616000  1
  C  C350  1  0.47144000  0.02635000  0.81384000  1
  C  C351  1  0.02856000  0.97365000  0.31384000  1
  C  C352  1  0.68616000  0.52856000  0.52635000  1
  C  C353  1  0.18616000  0.97144000  0.47365000  1
  C  C354  1  0.81384000  0.47144000  0.02635000  1
  C  C355  1  0.31384000  0.02856000  0.97365000  1
  C  C356  1  0.52635000  0.68616000  0.52856000  1
  C  C357  1  0.47365000  0.18616000  0.97144000  1
  C  C358  1  0.02635000  0.81384000  0.47144000  1
  C  C359  1  0.97365000  0.31384000  0.02856000  1
  C  C360  1  0.43932000  0.47503000  0.30784000  1
  C  C361  1  0.06068000  0.52497000  0.80784000  1
  C  C362  1  0.56068000  0.97503000  0.19216000  1
  C  C363  1  0.93932000  0.02497000  0.69216000  1
  C  C364  1  0.30784000  0.43932000  0.47503000  1
  C  C365  1  0.80784000  0.06068000  0.52497000  1
  C  C366  1  0.19216000  0.56068000  0.97503000  1
  C  C367  1  0.69216000  0.93932000  0.02497000  1
  C  C368  1  0.47503000  0.30784000  0.43932000  1
  C  C369  1  0.52497000  0.80784000  0.06068000  1
  C  C370  1  0.97503000  0.19216000  0.56068000  1
  C  C371  1  0.02497000  0.69216000  0.93932000  1
  C  C372  1  0.56068000  0.52497000  0.69216000  1
  C  C373  1  0.93932000  0.47503000  0.19216000  1
  C  C374  1  0.43932000  0.02497000  0.80784000  1
  C  C375  1  0.06068000  0.97503000  0.30784000  1
  C  C376  1  0.69216000  0.56068000  0.52497000  1
  C  C377  1  0.19216000  0.93932000  0.47503000  1
  C  C378  1  0.80784000  0.43932000  0.02497000  1
  C  C379  1  0.30784000  0.06068000  0.97503000  1
  C  C380  1  0.52497000  0.69216000  0.56068000  1
  C  C381  1  0.47503000  0.19216000  0.93932000  1
  C  C382  1  0.02497000  0.80784000  0.43932000  1
  C  C383  1  0.97503000  0.30784000  0.06068000  1
  C  C384  1  0.42034000  0.48483000  0.32922000  1
  C  C385  1  0.07966000  0.51517000  0.82922000  1
  C  C386  1  0.57966000  0.98483000  0.17078000  1
  C  C387  1  0.92034000  0.01517000  0.67078000  1
  C  C388  1  0.32922000  0.42034000  0.48483000  1
  C  C389  1  0.82922000  0.07966000  0.51517000  1
  C  C390  1  0.17078000  0.57966000  0.98483000  1
  C  C391  1  0.67078000  0.92034000  0.01517000  1
  C  C392  1  0.48483000  0.32922000  0.42034000  1
  C  C393  1  0.51517000  0.82922000  0.07966000  1
  C  C394  1  0.98483000  0.17078000  0.57966000  1
  C  C395  1  0.01517000  0.67078000  0.92034000  1
  C  C396  1  0.57966000  0.51517000  0.67078000  1
  C  C397  1  0.92034000  0.48483000  0.17078000  1
  C  C398  1  0.42034000  0.01517000  0.82922000  1
  C  C399  1  0.07966000  0.98483000  0.32922000  1
  C  C400  1  0.67078000  0.57966000  0.51517000  1
  C  C401  1  0.17078000  0.92034000  0.48483000  1
  C  C402  1  0.82922000  0.42034000  0.01517000  1
  C  C403  1  0.32922000  0.07966000  0.98483000  1
  C  C404  1  0.51517000  0.67078000  0.57966000  1
  C  C405  1  0.48483000  0.17078000  0.92034000  1
  C  C406  1  0.01517000  0.82922000  0.42034000  1
  C  C407  1  0.98483000  0.32922000  0.07966000  1
  H  H408  1  0.42740000  0.48869000  0.34828000  1
  H  H409  1  0.07260000  0.51131000  0.84828000  1
  H  H410  1  0.57260000  0.98869000  0.15172000  1
  H  H411  1  0.92740000  0.01131000  0.65172000  1
  H  H412  1  0.34828000  0.42740000  0.48869000  1
  H  H413  1  0.84828000  0.07260000  0.51131000  1
  H  H414  1  0.15172000  0.57260000  0.98869000  1
  H  H415  1  0.65172000  0.92740000  0.01131000  1
  H  H416  1  0.48869000  0.34828000  0.42740000  1
  H  H417  1  0.51131000  0.84828000  0.07260000  1
  H  H418  1  0.98869000  0.15172000  0.57260000  1
  H  H419  1  0.01131000  0.65172000  0.92740000  1
  H  H420  1  0.57260000  0.51131000  0.65172000  1
  H  H421  1  0.92740000  0.48869000  0.15172000  1
  H  H422  1  0.42740000  0.01131000  0.84828000  1
  H  H423  1  0.07260000  0.98869000  0.34828000  1
  H  H424  1  0.65172000  0.57260000  0.51131000  1
  H  H425  1  0.15172000  0.92740000  0.48869000  1
  H  H426  1  0.84828000  0.42740000  0.01131000  1
  H  H427  1  0.34828000  0.07260000  0.98869000  1
  H  H428  1  0.51131000  0.65172000  0.57260000  1
  H  H429  1  0.48869000  0.15172000  0.92740000  1
  H  H430  1  0.01131000  0.84828000  0.42740000  1
  H  H431  1  0.98869000  0.34828000  0.07260000  1
  C  C432  1  0.39103000  0.48883000  0.32293000  1
  C  C433  1  0.10897000  0.51117000  0.82293000  1
  C  C434  1  0.60897000  0.98883000  0.17707000  1
  C  C435  1  0.89103000  0.01117000  0.67707000  1
  C  C436  1  0.32293000  0.39103000  0.48883000  1
  C  C437  1  0.82293000  0.10897000  0.51117000  1
  C  C438  1  0.17707000  0.60897000  0.98883000  1
  C  C439  1  0.67707000  0.89103000  0.01117000  1
  C  C440  1  0.48883000  0.32293000  0.39103000  1
  C  C441  1  0.51117000  0.82293000  0.10897000  1
  C  C442  1  0.98883000  0.17707000  0.60897000  1
  C  C443  1  0.01117000  0.67707000  0.89103000  1
  C  C444  1  0.60897000  0.51117000  0.67707000  1
  C  C445  1  0.89103000  0.48883000  0.17707000  1
  C  C446  1  0.39103000  0.01117000  0.82293000  1
  C  C447  1  0.10897000  0.98883000  0.32293000  1
  C  C448  1  0.67707000  0.60897000  0.51117000  1
  C  C449  1  0.17707000  0.89103000  0.48883000  1
  C  C450  1  0.82293000  0.39103000  0.01117000  1
  C  C451  1  0.32293000  0.10897000  0.98883000  1
  C  C452  1  0.51117000  0.67707000  0.60897000  1
  C  C453  1  0.48883000  0.17707000  0.89103000  1
  C  C454  1  0.01117000  0.82293000  0.39103000  1
  C  C455  1  0.98883000  0.32293000  0.10897000  1
  C  C456  1  0.38062000  0.48313000  0.29504000  1
  C  C457  1  0.11938000  0.51687000  0.79504000  1
  C  C458  1  0.61938000  0.98313000  0.20496000  1
  C  C459  1  0.88062000  0.01687000  0.70496000  1
  C  C460  1  0.29504000  0.38062000  0.48313000  1
  C  C461  1  0.79504000  0.11938000  0.51687000  1
  C  C462  1  0.20496000  0.61938000  0.98313000  1
  C  C463  1  0.70496000  0.88062000  0.01687000  1
  C  C464  1  0.48313000  0.29504000  0.38062000  1
  C  C465  1  0.51687000  0.79504000  0.11938000  1
  C  C466  1  0.98313000  0.20496000  0.61938000  1
  C  C467  1  0.01687000  0.70496000  0.88062000  1
  C  C468  1  0.61938000  0.51687000  0.70496000  1
  C  C469  1  0.88062000  0.48313000  0.20496000  1
  C  C470  1  0.38062000  0.01687000  0.79504000  1
  C  C471  1  0.11938000  0.98313000  0.29504000  1
  C  C472  1  0.70496000  0.61938000  0.51687000  1
  C  C473  1  0.20496000  0.88062000  0.48313000  1
  C  C474  1  0.79504000  0.38062000  0.01687000  1
  C  C475  1  0.29504000  0.11938000  0.98313000  1
  C  C476  1  0.51687000  0.70496000  0.61938000  1
  C  C477  1  0.48313000  0.20496000  0.88062000  1
  C  C478  1  0.01687000  0.79504000  0.38062000  1
  C  C479  1  0.98313000  0.29504000  0.11938000  1
  C  C480  1  0.39964000  0.47333000  0.27352000  1
  C  C481  1  0.10036000  0.52667000  0.77352000  1
  C  C482  1  0.60036000  0.97333000  0.22648000  1
  C  C483  1  0.89964000  0.02667000  0.72648000  1
  C  C484  1  0.27352000  0.39964000  0.47333000  1
  C  C485  1  0.77352000  0.10036000  0.52667000  1
  C  C486  1  0.22648000  0.60036000  0.97333000  1
  C  C487  1  0.72648000  0.89964000  0.02667000  1
  C  C488  1  0.47333000  0.27352000  0.39964000  1
  C  C489  1  0.52667000  0.77352000  0.10036000  1
  C  C490  1  0.97333000  0.22648000  0.60036000  1
  C  C491  1  0.02667000  0.72648000  0.89964000  1
  C  C492  1  0.60036000  0.52667000  0.72648000  1
  C  C493  1  0.89964000  0.47333000  0.22648000  1
  C  C494  1  0.39964000  0.02667000  0.77352000  1
  C  C495  1  0.10036000  0.97333000  0.27352000  1
  C  C496  1  0.72648000  0.60036000  0.52667000  1
  C  C497  1  0.22648000  0.89964000  0.47333000  1
  C  C498  1  0.77352000  0.39964000  0.02667000  1
  C  C499  1  0.27352000  0.10036000  0.97333000  1
  C  C500  1  0.52667000  0.72648000  0.60036000  1
  C  C501  1  0.47333000  0.22648000  0.89964000  1
  C  C502  1  0.02667000  0.77352000  0.39964000  1
  C  C503  1  0.97333000  0.27352000  0.10036000  1
  H  H504  1  0.39250000  0.46933000  0.25450000  1
  H  H505  1  0.10750000  0.53067000  0.75450000  1
  H  H506  1  0.60750000  0.96933000  0.24550000  1
  H  H507  1  0.89250000  0.03067000  0.74550000  1
  H  H508  1  0.25450000  0.39250000  0.46933000  1
  H  H509  1  0.75450000  0.10750000  0.53067000  1
  H  H510  1  0.24550000  0.60750000  0.96933000  1
  H  H511  1  0.74550000  0.89250000  0.03067000  1
  H  H512  1  0.46933000  0.25450000  0.39250000  1
  H  H513  1  0.53067000  0.75450000  0.10750000  1
  H  H514  1  0.96933000  0.24550000  0.60750000  1
  H  H515  1  0.03067000  0.74550000  0.89250000  1
  H  H516  1  0.60750000  0.53067000  0.74550000  1
  H  H517  1  0.89250000  0.46933000  0.24550000  1
  H  H518  1  0.39250000  0.03067000  0.75450000  1
  H  H519  1  0.10750000  0.96933000  0.25450000  1
  H  H520  1  0.74550000  0.60750000  0.53067000  1
  H  H521  1  0.24550000  0.89250000  0.46933000  1
  H  H522  1  0.75450000  0.39250000  0.03067000  1
  H  H523  1  0.25450000  0.10750000  0.96933000  1
  H  H524  1  0.53067000  0.74550000  0.60750000  1
  H  H525  1  0.46933000  0.24550000  0.89250000  1
  H  H526  1  0.03067000  0.75450000  0.39250000  1
  H  H527  1  0.96933000  0.25450000  0.10750000  1
  C  C528  1  0.42893000  0.46923000  0.27993000  1
  C  C529  1  0.07107000  0.53077000  0.77993000  1
  C  C530  1  0.57107000  0.96923000  0.22007000  1
  C  C531  1  0.92893000  0.03077000  0.72007000  1
  C  C532  1  0.27993000  0.42893000  0.46923000  1
  C  C533  1  0.77993000  0.07107000  0.53077000  1
  C  C534  1  0.22007000  0.57107000  0.96923000  1
  C  C535  1  0.72007000  0.92893000  0.03077000  1
  C  C536  1  0.46923000  0.27993000  0.42893000  1
  C  C537  1  0.53077000  0.77993000  0.07107000  1
  C  C538  1  0.96923000  0.22007000  0.57107000  1
  C  C539  1  0.03077000  0.72007000  0.92893000  1
  C  C540  1  0.57107000  0.53077000  0.72007000  1
  C  C541  1  0.92893000  0.46923000  0.22007000  1
  C  C542  1  0.42893000  0.03077000  0.77993000  1
  C  C543  1  0.07107000  0.96923000  0.27993000  1
  C  C544  1  0.72007000  0.57107000  0.53077000  1
  C  C545  1  0.22007000  0.92893000  0.46923000  1
  C  C546  1  0.77993000  0.42893000  0.03077000  1
  C  C547  1  0.27993000  0.07107000  0.96923000  1
  C  C548  1  0.53077000  0.72007000  0.57107000  1
  C  C549  1  0.46923000  0.22007000  0.92893000  1
  C  C550  1  0.03077000  0.77993000  0.42893000  1
  C  C551  1  0.96923000  0.27993000  0.07107000  1
  H  H552  1  0.44185000  0.46252000  0.26523000  1
  H  H553  1  0.05815000  0.53748000  0.76523000  1
  H  H554  1  0.55815000  0.96252000  0.23477000  1
  H  H555  1  0.94185000  0.03748000  0.73477000  1
  H  H556  1  0.26523000  0.44185000  0.46252000  1
  H  H557  1  0.76523000  0.05815000  0.53748000  1
  H  H558  1  0.23477000  0.55815000  0.96252000  1
  H  H559  1  0.73477000  0.94185000  0.03748000  1
  H  H560  1  0.46252000  0.26523000  0.44185000  1
  H  H561  1  0.53748000  0.76523000  0.05815000  1
  H  H562  1  0.96252000  0.23477000  0.55815000  1
  H  H563  1  0.03748000  0.73477000  0.94185000  1
  H  H564  1  0.55815000  0.53748000  0.73477000  1
  H  H565  1  0.94185000  0.46252000  0.23477000  1
  H  H566  1  0.44185000  0.03748000  0.76523000  1
  H  H567  1  0.05815000  0.96252000  0.26523000  1
  H  H568  1  0.73477000  0.55815000  0.53748000  1
  H  H569  1  0.23477000  0.94185000  0.46252000  1
  H  H570  1  0.76523000  0.44185000  0.03748000  1
  H  H571  1  0.26523000  0.05815000  0.96252000  1
  H  H572  1  0.53748000  0.73477000  0.55815000  1
  H  H573  1  0.46252000  0.23477000  0.94185000  1
  H  H574  1  0.03748000  0.76523000  0.44185000  1
  H  H575  1  0.96252000  0.26523000  0.05815000  1
  C  C576  1  0.33493000  0.51043000  0.38232000  1
  C  C577  1  0.16507000  0.48957000  0.88232000  1
  C  C578  1  0.66507000  0.01043000  0.11768000  1
  C  C579  1  0.83493000  0.98957000  0.61768000  1
  C  C580  1  0.38232000  0.33493000  0.51043000  1
  C  C581  1  0.88232000  0.16507000  0.48957000  1
  C  C582  1  0.11768000  0.66507000  0.01043000  1
  C  C583  1  0.61768000  0.83493000  0.98957000  1
  C  C584  1  0.51043000  0.38232000  0.33493000  1
  C  C585  1  0.48957000  0.88232000  0.16507000  1
  C  C586  1  0.01043000  0.11768000  0.66507000  1
  C  C587  1  0.98957000  0.61768000  0.83493000  1
  C  C588  1  0.66507000  0.48957000  0.61768000  1
  C  C589  1  0.83493000  0.51043000  0.11768000  1
  C  C590  1  0.33493000  0.98957000  0.88232000  1
  C  C591  1  0.16507000  0.01043000  0.38232000  1
  C  C592  1  0.61768000  0.66507000  0.48957000  1
  C  C593  1  0.11768000  0.83493000  0.51043000  1
  C  C594  1  0.88232000  0.33493000  0.98957000  1
  C  C595  1  0.38232000  0.16507000  0.01043000  1
  C  C596  1  0.48957000  0.61768000  0.66507000  1
  C  C597  1  0.51043000  0.11768000  0.83493000  1
  C  C598  1  0.98957000  0.88232000  0.33493000  1
  C  C599  1  0.01043000  0.38232000  0.16507000  1
  C  C600  1  0.36203000  0.50383000  0.37043000  1
  C  C601  1  0.13797000  0.49617000  0.87043000  1
  C  C602  1  0.63797000  0.00383000  0.12957000  1
  C  C603  1  0.86203000  0.00000000  0.62957000  1
  C  C604  1  0.37043000  0.36203000  0.50383000  1
  C  C605  1  0.87043000  0.13797000  0.49617000  1
  C  C606  1  0.12957000  0.63797000  0.00383000  1
  C  C607  1  0.62957000  0.86203000  0.00000000  1
  C  C608  1  0.50383000  0.37043000  0.36203000  1
  C  C609  1  0.49617000  0.87043000  0.13797000  1
  C  C610  1  0.00383000  0.12957000  0.63797000  1
  C  C611  1  0.00000000  0.62957000  0.86203000  1
  C  C612  1  0.63797000  0.49617000  0.62957000  1
  C  C613  1  0.86203000  0.50383000  0.12957000  1
  C  C614  1  0.36203000  0.00000000  0.87043000  1
  C  C615  1  0.13797000  0.00383000  0.37043000  1
  C  C616  1  0.62957000  0.63797000  0.49617000  1
  C  C617  1  0.12957000  0.86203000  0.50383000  1
  C  C618  1  0.87043000  0.36203000  0.00000000  1
  C  C619  1  0.37043000  0.13797000  0.00383000  1
  C  C620  1  0.49617000  0.62957000  0.63797000  1
  C  C621  1  0.50383000  0.12957000  0.86203000  1
  C  C622  1  0.00000000  0.87043000  0.36203000  1
  C  C623  1  0.00383000  0.37043000  0.13797000  1
  H  H624  1  0.37883000  0.50376000  0.38250000  1
  H  H625  1  0.12117000  0.49624000  0.88250000  1
  H  H626  1  0.62117000  0.00376000  0.11750000  1
  H  H627  1  0.87883000  0.00000000  0.61750000  1
  H  H628  1  0.38250000  0.37883000  0.50376000  1
  H  H629  1  0.88250000  0.12117000  0.49624000  1
  H  H630  1  0.11750000  0.62117000  0.00376000  1
  H  H631  1  0.61750000  0.87883000  0.00000000  1
  H  H632  1  0.50376000  0.38250000  0.37883000  1
  H  H633  1  0.49624000  0.88250000  0.12117000  1
  H  H634  1  0.00376000  0.11750000  0.62117000  1
  H  H635  1  0.00000000  0.61750000  0.87883000  1
  H  H636  1  0.62117000  0.49624000  0.61750000  1
  H  H637  1  0.87883000  0.50376000  0.11750000  1
  H  H638  1  0.37883000  0.00000000  0.88250000  1
  H  H639  1  0.12117000  0.00376000  0.38250000  1
  H  H640  1  0.61750000  0.62117000  0.49624000  1
  H  H641  1  0.11750000  0.87883000  0.50376000  1
  H  H642  1  0.88250000  0.37883000  0.00000000  1
  H  H643  1  0.38250000  0.12117000  0.00376000  1
  H  H644  1  0.49624000  0.61750000  0.62117000  1
  H  H645  1  0.50376000  0.11750000  0.87883000  1
  H  H646  1  0.00000000  0.88250000  0.37883000  1
  H  H647  1  0.00376000  0.38250000  0.12117000  1
  C  C648  1  0.36453000  0.49733000  0.34103000  1
  C  C649  1  0.13547000  0.50267000  0.84103000  1
  C  C650  1  0.63547000  0.00000000  0.15897000  1
  C  C651  1  0.86453000  0.00267000  0.65897000  1
  C  C652  1  0.34103000  0.36453000  0.49733000  1
  C  C653  1  0.84103000  0.13547000  0.50267000  1
  C  C654  1  0.15897000  0.63547000  0.00000000  1
  C  C655  1  0.65897000  0.86453000  0.00267000  1
  C  C656  1  0.49733000  0.34103000  0.36453000  1
  C  C657  1  0.50267000  0.84103000  0.13547000  1
  C  C658  1  0.00000000  0.15897000  0.63547000  1
  C  C659  1  0.00267000  0.65897000  0.86453000  1
  C  C660  1  0.63547000  0.50267000  0.65897000  1
  C  C661  1  0.86453000  0.49733000  0.15897000  1
  C  C662  1  0.36453000  0.00267000  0.84103000  1
  C  C663  1  0.13547000  0.00000000  0.34103000  1
  C  C664  1  0.65897000  0.63547000  0.50267000  1
  C  C665  1  0.15897000  0.86453000  0.49733000  1
  C  C666  1  0.84103000  0.36453000  0.00267000  1
  C  C667  1  0.34103000  0.13547000  0.00000000  1
  C  C668  1  0.50267000  0.65897000  0.63547000  1
  C  C669  1  0.49733000  0.15897000  0.86453000  1
  C  C670  1  0.00267000  0.84103000  0.36453000  1
  C  C671  1  0.00000000  0.34103000  0.13547000  1
  C  C672  1  0.33994000  0.49743000  0.32332000  1
  C  C673  1  0.16006000  0.50257000  0.82332000  1
  C  C674  1  0.66006000  0.00000000  0.17668000  1
  C  C675  1  0.83994000  0.00257000  0.67668000  1
  C  C676  1  0.32332000  0.33994000  0.49743000  1
  C  C677  1  0.82332000  0.16006000  0.50257000  1
  C  C678  1  0.17668000  0.66006000  0.00000000  1
  C  C679  1  0.67668000  0.83994000  0.00257000  1
  C  C680  1  0.49743000  0.32332000  0.33994000  1
  C  C681  1  0.50257000  0.82332000  0.16006000  1
  C  C682  1  0.00000000  0.17668000  0.66006000  1
  C  C683  1  0.00257000  0.67668000  0.83994000  1
  C  C684  1  0.66006000  0.50257000  0.67668000  1
  C  C685  1  0.83994000  0.49743000  0.17668000  1
  C  C686  1  0.33994000  0.00257000  0.82332000  1
  C  C687  1  0.16006000  0.00000000  0.32332000  1
  C  C688  1  0.67668000  0.66006000  0.50257000  1
  C  C689  1  0.17668000  0.83994000  0.49743000  1
  C  C690  1  0.82332000  0.33994000  0.00257000  1
  C  C691  1  0.32332000  0.16006000  0.00000000  1
  C  C692  1  0.50257000  0.67668000  0.66006000  1
  C  C693  1  0.49743000  0.17668000  0.83994000  1
  C  C694  1  0.00257000  0.82332000  0.33994000  1
  C  C695  1  0.00000000  0.32332000  0.16006000  1
  C  C696  1  0.31283000  0.50403000  0.33523000  1
  C  C697  1  0.18717000  0.49597000  0.83523000  1
  C  C698  1  0.68717000  0.00403000  0.16477000  1
  C  C699  1  0.81283000  0.00000000  0.66477000  1
  C  C700  1  0.33523000  0.31283000  0.50403000  1
  C  C701  1  0.83523000  0.18717000  0.49597000  1
  C  C702  1  0.16477000  0.68717000  0.00403000  1
  C  C703  1  0.66477000  0.81283000  0.00000000  1
  C  C704  1  0.50403000  0.33523000  0.31283000  1
  C  C705  1  0.49597000  0.83523000  0.18717000  1
  C  C706  1  0.00403000  0.16477000  0.68717000  1
  C  C707  1  0.00000000  0.66477000  0.81283000  1
  C  C708  1  0.68717000  0.49597000  0.66477000  1
  C  C709  1  0.81283000  0.50403000  0.16477000  1
  C  C710  1  0.31283000  0.00000000  0.83523000  1
  C  C711  1  0.18717000  0.00403000  0.33523000  1
  C  C712  1  0.66477000  0.68717000  0.49597000  1
  C  C713  1  0.16477000  0.81283000  0.50403000  1
  C  C714  1  0.83523000  0.31283000  0.00000000  1
  C  C715  1  0.33523000  0.18717000  0.00403000  1
  C  C716  1  0.49597000  0.66477000  0.68717000  1
  C  C717  1  0.50403000  0.16477000  0.81283000  1
  C  C718  1  0.00000000  0.83523000  0.31283000  1
  C  C719  1  0.00403000  0.33523000  0.18717000  1
  H  H720  1  0.29601000  0.50406000  0.32310000  1
  H  H721  1  0.20399000  0.49594000  0.82310000  1
  H  H722  1  0.70399000  0.00406000  0.17690000  1
  H  H723  1  0.79601000  0.00000000  0.67690000  1
  H  H724  1  0.32310000  0.29601000  0.50406000  1
  H  H725  1  0.82310000  0.20399000  0.49594000  1
  H  H726  1  0.17690000  0.70399000  0.00406000  1
  H  H727  1  0.67690000  0.79601000  0.00000000  1
  H  H728  1  0.50406000  0.32310000  0.29601000  1
  H  H729  1  0.49594000  0.82310000  0.20399000  1
  H  H730  1  0.00406000  0.17690000  0.70399000  1
  H  H731  1  0.00000000  0.67690000  0.79601000  1
  H  H732  1  0.70399000  0.49594000  0.67690000  1
  H  H733  1  0.79601000  0.50406000  0.17690000  1
  H  H734  1  0.29601000  0.00000000  0.82310000  1
  H  H735  1  0.20399000  0.00406000  0.32310000  1
  H  H736  1  0.67690000  0.70399000  0.49594000  1
  H  H737  1  0.17690000  0.79601000  0.50406000  1
  H  H738  1  0.82310000  0.29601000  0.00000000  1
  H  H739  1  0.32310000  0.20399000  0.00406000  1
  H  H740  1  0.49594000  0.67690000  0.70399000  1
  H  H741  1  0.50406000  0.17690000  0.79601000  1
  H  H742  1  0.00000000  0.82310000  0.29601000  1
  H  H743  1  0.00406000  0.32310000  0.20399000  1
  C  C744  1  0.31032000  0.51053000  0.36463000  1
  C  C745  1  0.18968000  0.48947000  0.86463000  1
  C  C746  1  0.68968000  0.01053000  0.13537000  1
  C  C747  1  0.81032000  0.98947000  0.63537000  1
  C  C748  1  0.36463000  0.31032000  0.51053000  1
  C  C749  1  0.86463000  0.18968000  0.48947000  1
  C  C750  1  0.13537000  0.68968000  0.01053000  1
  C  C751  1  0.63537000  0.81032000  0.98947000  1
  C  C752  1  0.51053000  0.36463000  0.31032000  1
  C  C753  1  0.48947000  0.86463000  0.18968000  1
  C  C754  1  0.01053000  0.13537000  0.68968000  1
  C  C755  1  0.98947000  0.63537000  0.81032000  1
  C  C756  1  0.68968000  0.48947000  0.63537000  1
  C  C757  1  0.81032000  0.51053000  0.13537000  1
  C  C758  1  0.31032000  0.98947000  0.86463000  1
  C  C759  1  0.18968000  0.01053000  0.36463000  1
  C  C760  1  0.63537000  0.68968000  0.48947000  1
  C  C761  1  0.13537000  0.81032000  0.51053000  1
  C  C762  1  0.86463000  0.31032000  0.98947000  1
  C  C763  1  0.36463000  0.18968000  0.01053000  1
  C  C764  1  0.48947000  0.63537000  0.68968000  1
  C  C765  1  0.51053000  0.13537000  0.81032000  1
  C  C766  1  0.98947000  0.86463000  0.31032000  1
  C  C767  1  0.01053000  0.36463000  0.18968000  1
  H  H768  1  0.29184000  0.51501000  0.37270000  1
  H  H769  1  0.20816000  0.48499000  0.87270000  1
  H  H770  1  0.70816000  0.01501000  0.12730000  1
  H  H771  1  0.79184000  0.98499000  0.62730000  1
  H  H772  1  0.37270000  0.29184000  0.51501000  1
  H  H773  1  0.87270000  0.20816000  0.48499000  1
  H  H774  1  0.12730000  0.70816000  0.01501000  1
  H  H775  1  0.62730000  0.79184000  0.98499000  1
  H  H776  1  0.51501000  0.37270000  0.29184000  1
  H  H777  1  0.48499000  0.87270000  0.20816000  1
  H  H778  1  0.01501000  0.12730000  0.70816000  1
  H  H779  1  0.98499000  0.62730000  0.79184000  1
  H  H780  1  0.70816000  0.48499000  0.62730000  1
  H  H781  1  0.79184000  0.51501000  0.12730000  1
  H  H782  1  0.29184000  0.98499000  0.87270000  1
  H  H783  1  0.20816000  0.01501000  0.37270000  1
  H  H784  1  0.62730000  0.70816000  0.48499000  1
  H  H785  1  0.12730000  0.79184000  0.51501000  1
  H  H786  1  0.87270000  0.29184000  0.98499000  1
  H  H787  1  0.37270000  0.20816000  0.01501000  1
  H  H788  1  0.48499000  0.62730000  0.70816000  1
  H  H789  1  0.51501000  0.12730000  0.79184000  1
  H  H790  1  0.98499000  0.87270000  0.29184000  1
  H  H791  1  0.01501000  0.37270000  0.20816000  1
  C  C792  1  0.11302000  0.46333000  0.16174000  1
  C  C793  1  0.38698000  0.53667000  0.66174000  1
  C  C794  1  0.88698000  0.96333000  0.33826000  1
  C  C795  1  0.61302000  0.03667000  0.83826000  1
  C  C796  1  0.16174000  0.11302000  0.46333000  1
  C  C797  1  0.66174000  0.38698000  0.53667000  1
  C  C798  1  0.33826000  0.88698000  0.96333000  1
  C  C799  1  0.83826000  0.61302000  0.03667000  1
  C  C800  1  0.46333000  0.16174000  0.11302000  1
  C  C801  1  0.53667000  0.66174000  0.38698000  1
  C  C802  1  0.96333000  0.33826000  0.88698000  1
  C  C803  1  0.03667000  0.83826000  0.61302000  1
  C  C804  1  0.88698000  0.53667000  0.83826000  1
  C  C805  1  0.61302000  0.46333000  0.33826000  1
  C  C806  1  0.11302000  0.03667000  0.66174000  1
  C  C807  1  0.38698000  0.96333000  0.16174000  1
  C  C808  1  0.83826000  0.88698000  0.53667000  1
  C  C809  1  0.33826000  0.61302000  0.46333000  1
  C  C810  1  0.66174000  0.11302000  0.03667000  1
  C  C811  1  0.16174000  0.38698000  0.96333000  1
  C  C812  1  0.53667000  0.83826000  0.88698000  1
  C  C813  1  0.46333000  0.33826000  0.61302000  1
  C  C814  1  0.03667000  0.66174000  0.11302000  1
  C  C815  1  0.96333000  0.16174000  0.38698000  1
  C  C816  1  0.12543000  0.46463000  0.13413000  1
  C  C817  1  0.37457000  0.53537000  0.63413000  1
  C  C818  1  0.87457000  0.96463000  0.36587000  1
  C  C819  1  0.62543000  0.03537000  0.86587000  1
  C  C820  1  0.13413000  0.12543000  0.46463000  1
  C  C821  1  0.63413000  0.37457000  0.53537000  1
  C  C822  1  0.36587000  0.87457000  0.96463000  1
  C  C823  1  0.86587000  0.62543000  0.03537000  1
  C  C824  1  0.46463000  0.13413000  0.12543000  1
  C  C825  1  0.53537000  0.63413000  0.37457000  1
  C  C826  1  0.96463000  0.36587000  0.87457000  1
  C  C827  1  0.03537000  0.86587000  0.62543000  1
  C  C828  1  0.87457000  0.53537000  0.86587000  1
  C  C829  1  0.62543000  0.46463000  0.36587000  1
  C  C830  1  0.12543000  0.03537000  0.63413000  1
  C  C831  1  0.37457000  0.96463000  0.13413000  1
  C  C832  1  0.86587000  0.87457000  0.53537000  1
  C  C833  1  0.36587000  0.62543000  0.46463000  1
  C  C834  1  0.63413000  0.12543000  0.03537000  1
  C  C835  1  0.13413000  0.37457000  0.96463000  1
  C  C836  1  0.53537000  0.86587000  0.87457000  1
  C  C837  1  0.46463000  0.36587000  0.62543000  1
  C  C838  1  0.03537000  0.63413000  0.12543000  1
  C  C839  1  0.96463000  0.13413000  0.37457000  1
  H  H840  1  0.11325000  0.46676000  0.11748000  1
  H  H841  1  0.38675000  0.53324000  0.61748000  1
  H  H842  1  0.88675000  0.96676000  0.38252000  1
  H  H843  1  0.61325000  0.03324000  0.88252000  1
  H  H844  1  0.11748000  0.11325000  0.46676000  1
  H  H845  1  0.61748000  0.38675000  0.53324000  1
  H  H846  1  0.38252000  0.88675000  0.96676000  1
  H  H847  1  0.88252000  0.61325000  0.03324000  1
  H  H848  1  0.46676000  0.11748000  0.11325000  1
  H  H849  1  0.53324000  0.61748000  0.38675000  1
  H  H850  1  0.96676000  0.38252000  0.88675000  1
  H  H851  1  0.03324000  0.88252000  0.61325000  1
  H  H852  1  0.88675000  0.53324000  0.88252000  1
  H  H853  1  0.61325000  0.46676000  0.38252000  1
  H  H854  1  0.11325000  0.03324000  0.61748000  1
  H  H855  1  0.38675000  0.96676000  0.11748000  1
  H  H856  1  0.88252000  0.88675000  0.53324000  1
  H  H857  1  0.38252000  0.61325000  0.46676000  1
  H  H858  1  0.61748000  0.11325000  0.03324000  1
  H  H859  1  0.11748000  0.38675000  0.96676000  1
  H  H860  1  0.53324000  0.88252000  0.88675000  1
  H  H861  1  0.46676000  0.38252000  0.61325000  1
  H  H862  1  0.03324000  0.61748000  0.11325000  1
  H  H863  1  0.96676000  0.11748000  0.38675000  1
  C  C864  1  0.15544000  0.46273000  0.13093000  1
  C  C865  1  0.34456000  0.53727000  0.63093000  1
  C  C866  1  0.84456000  0.96273000  0.36907000  1
  C  C867  1  0.65544000  0.03727000  0.86907000  1
  C  C868  1  0.13093000  0.15544000  0.46273000  1
  C  C869  1  0.63093000  0.34456000  0.53727000  1
  C  C870  1  0.36907000  0.84456000  0.96273000  1
  C  C871  1  0.86907000  0.65544000  0.03727000  1
  C  C872  1  0.46273000  0.13093000  0.15544000  1
  C  C873  1  0.53727000  0.63093000  0.34456000  1
  C  C874  1  0.96273000  0.36907000  0.84456000  1
  C  C875  1  0.03727000  0.86907000  0.65544000  1
  C  C876  1  0.84456000  0.53727000  0.86907000  1
  C  C877  1  0.65544000  0.46273000  0.36907000  1
  C  C878  1  0.15544000  0.03727000  0.63093000  1
  C  C879  1  0.34456000  0.96273000  0.13093000  1
  C  C880  1  0.86907000  0.84456000  0.53727000  1
  C  C881  1  0.36907000  0.65544000  0.46273000  1
  C  C882  1  0.63093000  0.15544000  0.03727000  1
  C  C883  1  0.13093000  0.34456000  0.96273000  1
  C  C884  1  0.53727000  0.86907000  0.84456000  1
  C  C885  1  0.46273000  0.36907000  0.65544000  1
  C  C886  1  0.03727000  0.63093000  0.15544000  1
  C  C887  1  0.96273000  0.13093000  0.34456000  1
  C  C888  1  0.17312000  0.45963000  0.15524000  1
  C  C889  1  0.32688000  0.54037000  0.65524000  1
  C  C890  1  0.82688000  0.95963000  0.34476000  1
  C  C891  1  0.67312000  0.04037000  0.84476000  1
  C  C892  1  0.15524000  0.17312000  0.45963000  1
  C  C893  1  0.65524000  0.32688000  0.54037000  1
  C  C894  1  0.34476000  0.82688000  0.95963000  1
  C  C895  1  0.84476000  0.67312000  0.04037000  1
  C  C896  1  0.45963000  0.15524000  0.17312000  1
  C  C897  1  0.54037000  0.65524000  0.32688000  1
  C  C898  1  0.95963000  0.34476000  0.82688000  1
  C  C899  1  0.04037000  0.84476000  0.67312000  1
  C  C900  1  0.82688000  0.54037000  0.84476000  1
  C  C901  1  0.67312000  0.45963000  0.34476000  1
  C  C902  1  0.17312000  0.04037000  0.65524000  1
  C  C903  1  0.32688000  0.95963000  0.15524000  1
  C  C904  1  0.84476000  0.82688000  0.54037000  1
  C  C905  1  0.34476000  0.67312000  0.45963000  1
  C  C906  1  0.65524000  0.17312000  0.04037000  1
  C  C907  1  0.15524000  0.32688000  0.95963000  1
  C  C908  1  0.54037000  0.84476000  0.82688000  1
  C  C909  1  0.45963000  0.34476000  0.67312000  1
  C  C910  1  0.04037000  0.65524000  0.17312000  1
  C  C911  1  0.95963000  0.15524000  0.32688000  1
  C  C912  1  0.16083000  0.45833000  0.18283000  1
  C  C913  1  0.33917000  0.54167000  0.68283000  1
  C  C914  1  0.83917000  0.95833000  0.31717000  1
  C  C915  1  0.66083000  0.04167000  0.81717000  1
  C  C916  1  0.18283000  0.16083000  0.45833000  1
  C  C917  1  0.68283000  0.33917000  0.54167000  1
  C  C918  1  0.31717000  0.83917000  0.95833000  1
  C  C919  1  0.81717000  0.66083000  0.04167000  1
  C  C920  1  0.45833000  0.18283000  0.16083000  1
  C  C921  1  0.54167000  0.68283000  0.33917000  1
  C  C922  1  0.95833000  0.31717000  0.83917000  1
  C  C923  1  0.04167000  0.81717000  0.66083000  1
  C  C924  1  0.83917000  0.54167000  0.81717000  1
  C  C925  1  0.66083000  0.45833000  0.31717000  1
  C  C926  1  0.16083000  0.04167000  0.68283000  1
  C  C927  1  0.33917000  0.95833000  0.18283000  1
  C  C928  1  0.81717000  0.83917000  0.54167000  1
  C  C929  1  0.31717000  0.66083000  0.45833000  1
  C  C930  1  0.68283000  0.16083000  0.04167000  1
  C  C931  1  0.18283000  0.33917000  0.95833000  1
  C  C932  1  0.54167000  0.81717000  0.83917000  1
  C  C933  1  0.45833000  0.31717000  0.66083000  1
  C  C934  1  0.04167000  0.68283000  0.16083000  1
  C  C935  1  0.95833000  0.18283000  0.33917000  1
  H  H936  1  0.17286000  0.45611000  0.19946000  1
  H  H937  1  0.32714000  0.54389000  0.69946000  1
  H  H938  1  0.82714000  0.95611000  0.30054000  1
  H  H939  1  0.67286000  0.04389000  0.80054000  1
  H  H940  1  0.19946000  0.17286000  0.45611000  1
  H  H941  1  0.69946000  0.32714000  0.54389000  1
  H  H942  1  0.30054000  0.82714000  0.95611000  1
  H  H943  1  0.80054000  0.67286000  0.04389000  1
  H  H944  1  0.45611000  0.19946000  0.17286000  1
  H  H945  1  0.54389000  0.69946000  0.32714000  1
  H  H946  1  0.95611000  0.30054000  0.82714000  1
  H  H947  1  0.04389000  0.80054000  0.67286000  1
  H  H948  1  0.82714000  0.54389000  0.80054000  1
  H  H949  1  0.67286000  0.45611000  0.30054000  1
  H  H950  1  0.17286000  0.04389000  0.69946000  1
  H  H951  1  0.32714000  0.95611000  0.19946000  1
  H  H952  1  0.80054000  0.82714000  0.54389000  1
  H  H953  1  0.30054000  0.67286000  0.45611000  1
  H  H954  1  0.69946000  0.17286000  0.04389000  1
  H  H955  1  0.19946000  0.32714000  0.95611000  1
  H  H956  1  0.54389000  0.80054000  0.82714000  1
  H  H957  1  0.45611000  0.30054000  0.67286000  1
  H  H958  1  0.04389000  0.69946000  0.17286000  1
  H  H959  1  0.95611000  0.19946000  0.32714000  1
  C  C960  1  0.13073000  0.46013000  0.18613000  1
  C  C961  1  0.36927000  0.53987000  0.68613000  1
  C  C962  1  0.86927000  0.96013000  0.31387000  1
  C  C963  1  0.63073000  0.03987000  0.81387000  1
  C  C964  1  0.18613000  0.13073000  0.46013000  1
  C  C965  1  0.68613000  0.36927000  0.53987000  1
  C  C966  1  0.31387000  0.86927000  0.96013000  1
  C  C967  1  0.81387000  0.63073000  0.03987000  1
  C  C968  1  0.46013000  0.18613000  0.13073000  1
  C  C969  1  0.53987000  0.68613000  0.36927000  1
  C  C970  1  0.96013000  0.31387000  0.86927000  1
  C  C971  1  0.03987000  0.81387000  0.63073000  1
  C  C972  1  0.86927000  0.53987000  0.81387000  1
  C  C973  1  0.63073000  0.46013000  0.31387000  1
  C  C974  1  0.13073000  0.03987000  0.68613000  1
  C  C975  1  0.36927000  0.96013000  0.18613000  1
  C  C976  1  0.81387000  0.86927000  0.53987000  1
  C  C977  1  0.31387000  0.63073000  0.46013000  1
  C  C978  1  0.68613000  0.13073000  0.03987000  1
  C  C979  1  0.18613000  0.36927000  0.96013000  1
  C  C980  1  0.53987000  0.81387000  0.86927000  1
  C  C981  1  0.46013000  0.31387000  0.63073000  1
  C  C982  1  0.03987000  0.68613000  0.13073000  1
  C  C983  1  0.96013000  0.18613000  0.36927000  1
  H  H984  1  0.12230000  0.45926000  0.20496000  1
  H  H985  1  0.37770000  0.54074000  0.70496000  1
  H  H986  1  0.87770000  0.95926000  0.29504000  1
  H  H987  1  0.62230000  0.04074000  0.79504000  1
  H  H988  1  0.20496000  0.12230000  0.45926000  1
  H  H989  1  0.70496000  0.37770000  0.54074000  1
  H  H990  1  0.29504000  0.87770000  0.95926000  1
  H  H991  1  0.79504000  0.62230000  0.04074000  1
  H  H992  1  0.45926000  0.20496000  0.12230000  1
  H  H993  1  0.54074000  0.70496000  0.37770000  1
  H  H994  1  0.95926000  0.29504000  0.87770000  1
  H  H995  1  0.04074000  0.79504000  0.62230000  1
  H  H996  1  0.87770000  0.54074000  0.79504000  1
  H  H997  1  0.62230000  0.45926000  0.29504000  1
  H  H998  1  0.12230000  0.04074000  0.70496000  1
  H  H999  1  0.37770000  0.95926000  0.20496000  1
  H  H1000  1  0.79504000  0.87770000  0.54074000  1
  H  H1001  1  0.29504000  0.62230000  0.45926000  1
  H  H1002  1  0.70496000  0.12230000  0.04074000  1
  H  H1003  1  0.20496000  0.37770000  0.95926000  1
  H  H1004  1  0.54074000  0.79504000  0.87770000  1
  H  H1005  1  0.45926000  0.29504000  0.62230000  1
  H  H1006  1  0.04074000  0.70496000  0.12230000  1
  H  H1007  1  0.95926000  0.20496000  0.37770000  1
  C  C1008  1  0.18355000  0.47124000  0.02204000  1
  C  C1009  1  0.31645000  0.52876000  0.52204000  1
  C  C1010  1  0.81645000  0.97124000  0.47796000  1
  C  C1011  1  0.68355000  0.02876000  0.97796000  1
  C  C1012  1  0.02204000  0.18355000  0.47124000  1
  C  C1013  1  0.52204000  0.31645000  0.52876000  1
  C  C1014  1  0.47796000  0.81645000  0.97124000  1
  C  C1015  1  0.97796000  0.68355000  0.02876000  1
  C  C1016  1  0.47124000  0.02204000  0.18355000  1
  C  C1017  1  0.52876000  0.52204000  0.31645000  1
  C  C1018  1  0.97124000  0.47796000  0.81645000  1
  C  C1019  1  0.02876000  0.97796000  0.68355000  1
  C  C1020  1  0.81645000  0.52876000  0.97796000  1
  C  C1021  1  0.68355000  0.47124000  0.47796000  1
  C  C1022  1  0.18355000  0.02876000  0.52204000  1
  C  C1023  1  0.31645000  0.97124000  0.02204000  1
  C  C1024  1  0.97796000  0.81645000  0.52876000  1
  C  C1025  1  0.47796000  0.68355000  0.47124000  1
  C  C1026  1  0.52204000  0.18355000  0.02876000  1
  C  C1027  1  0.02204000  0.31645000  0.97124000  1
  C  C1028  1  0.52876000  0.97796000  0.81645000  1
  C  C1029  1  0.47124000  0.47796000  0.68355000  1
  C  C1030  1  0.02876000  0.52204000  0.18355000  1
  C  C1031  1  0.97124000  0.02204000  0.31645000  1
  C  C1032  1  0.19073000  0.46733000  0.05462000  1
  C  C1033  1  0.30927000  0.53267000  0.55462000  1
  C  C1034  1  0.80927000  0.96733000  0.44538000  1
  C  C1035  1  0.69073000  0.03267000  0.94538000  1
  C  C1036  1  0.05462000  0.19073000  0.46733000  1
  C  C1037  1  0.55462000  0.30927000  0.53267000  1
  C  C1038  1  0.44538000  0.80927000  0.96733000  1
  C  C1039  1  0.94538000  0.69073000  0.03267000  1
  C  C1040  1  0.46733000  0.05462000  0.19073000  1
  C  C1041  1  0.53267000  0.55462000  0.30927000  1
  C  C1042  1  0.96733000  0.44538000  0.80927000  1
  C  C1043  1  0.03267000  0.94538000  0.69073000  1
  C  C1044  1  0.80927000  0.53267000  0.94538000  1
  C  C1045  1  0.69073000  0.46733000  0.44538000  1
  C  C1046  1  0.19073000  0.03267000  0.55462000  1
  C  C1047  1  0.30927000  0.96733000  0.05462000  1
  C  C1048  1  0.94538000  0.80927000  0.53267000  1
  C  C1049  1  0.44538000  0.69073000  0.46733000  1
  C  C1050  1  0.55462000  0.19073000  0.03267000  1
  C  C1051  1  0.05462000  0.30927000  0.96733000  1
  C  C1052  1  0.53267000  0.94538000  0.80927000  1
  C  C1053  1  0.46733000  0.44538000  0.69073000  1
  C  C1054  1  0.03267000  0.55462000  0.19073000  1
  C  C1055  1  0.96733000  0.05462000  0.30927000  1
  C  C1056  1  0.21933000  0.46543000  0.06423000  1
  C  C1057  1  0.28067000  0.53457000  0.56423000  1
  C  C1058  1  0.78067000  0.96543000  0.43577000  1
  C  C1059  1  0.71933000  0.03457000  0.93577000  1
  C  C1060  1  0.06423000  0.21933000  0.46543000  1
  C  C1061  1  0.56423000  0.28067000  0.53457000  1
  C  C1062  1  0.43577000  0.78067000  0.96543000  1
  C  C1063  1  0.93577000  0.71933000  0.03457000  1
  C  C1064  1  0.46543000  0.06423000  0.21933000  1
  C  C1065  1  0.53457000  0.56423000  0.28067000  1
  C  C1066  1  0.96543000  0.43577000  0.78067000  1
  C  C1067  1  0.03457000  0.93577000  0.71933000  1
  C  C1068  1  0.78067000  0.53457000  0.93577000  1
  C  C1069  1  0.71933000  0.46543000  0.43577000  1
  C  C1070  1  0.21933000  0.03457000  0.56423000  1
  C  C1071  1  0.28067000  0.96543000  0.06423000  1
  C  C1072  1  0.93577000  0.78067000  0.53457000  1
  C  C1073  1  0.43577000  0.71933000  0.46543000  1
  C  C1074  1  0.56423000  0.21933000  0.03457000  1
  C  C1075  1  0.06423000  0.28067000  0.96543000  1
  C  C1076  1  0.53457000  0.93577000  0.78067000  1
  C  C1077  1  0.46543000  0.43577000  0.71933000  1
  C  C1078  1  0.03457000  0.56423000  0.21933000  1
  C  C1079  1  0.96543000  0.06423000  0.28067000  1
  H  H1080  1  0.23486000  0.46586000  0.05061000  1
  H  H1081  1  0.26514000  0.53414000  0.55061000  1
  H  H1082  1  0.76514000  0.96586000  0.44939000  1
  H  H1083  1  0.73486000  0.03414000  0.94939000  1
  H  H1084  1  0.05061000  0.23486000  0.46586000  1
  H  H1085  1  0.55061000  0.26514000  0.53414000  1
  H  H1086  1  0.44939000  0.76514000  0.96586000  1
  H  H1087  1  0.94939000  0.73486000  0.03414000  1
  H  H1088  1  0.46586000  0.05061000  0.23486000  1
  H  H1089  1  0.53414000  0.55061000  0.26514000  1
  H  H1090  1  0.96586000  0.44939000  0.76514000  1
  H  H1091  1  0.03414000  0.94939000  0.73486000  1
  H  H1092  1  0.76514000  0.53414000  0.94939000  1
  H  H1093  1  0.73486000  0.46586000  0.44939000  1
  H  H1094  1  0.23486000  0.03414000  0.55061000  1
  H  H1095  1  0.26514000  0.96586000  0.05061000  1
  H  H1096  1  0.94939000  0.76514000  0.53414000  1
  H  H1097  1  0.44939000  0.73486000  0.46586000  1
  H  H1098  1  0.55061000  0.23486000  0.03414000  1
  H  H1099  1  0.05061000  0.26514000  0.96586000  1
  H  H1100  1  0.53414000  0.94939000  0.76514000  1
  H  H1101  1  0.46586000  0.44939000  0.73486000  1
  H  H1102  1  0.03414000  0.55061000  0.23486000  1
  H  H1103  1  0.96586000  0.05061000  0.26514000  1
  C  C1104  1  0.22522000  0.46303000  0.09384000  1
  C  C1105  1  0.27478000  0.53697000  0.59384000  1
  C  C1106  1  0.77478000  0.96303000  0.40616000  1
  C  C1107  1  0.72522000  0.03697000  0.90616000  1
  C  C1108  1  0.09384000  0.22522000  0.46303000  1
  C  C1109  1  0.59384000  0.27478000  0.53697000  1
  C  C1110  1  0.40616000  0.77478000  0.96303000  1
  C  C1111  1  0.90616000  0.72522000  0.03697000  1
  C  C1112  1  0.46303000  0.09384000  0.22522000  1
  C  C1113  1  0.53697000  0.59384000  0.27478000  1
  C  C1114  1  0.96303000  0.40616000  0.77478000  1
  C  C1115  1  0.03697000  0.90616000  0.72522000  1
  C  C1116  1  0.77478000  0.53697000  0.90616000  1
  C  C1117  1  0.72522000  0.46303000  0.40616000  1
  C  C1118  1  0.22522000  0.03697000  0.59384000  1
  C  C1119  1  0.27478000  0.96303000  0.09384000  1
  C  C1120  1  0.90616000  0.77478000  0.53697000  1
  C  C1121  1  0.40616000  0.72522000  0.46303000  1
  C  C1122  1  0.59384000  0.22522000  0.03697000  1
  C  C1123  1  0.09384000  0.27478000  0.96303000  1
  C  C1124  1  0.53697000  0.90616000  0.77478000  1
  C  C1125  1  0.46303000  0.40616000  0.72522000  1
  C  C1126  1  0.03697000  0.59384000  0.22522000  1
  C  C1127  1  0.96303000  0.09384000  0.27478000  1
  H  H1128  1  0.24477000  0.46171000  0.10042000  1
  H  H1129  1  0.25523000  0.53829000  0.60042000  1
  H  H1130  1  0.75523000  0.96171000  0.39958000  1
  H  H1131  1  0.74477000  0.03829000  0.89958000  1
  H  H1132  1  0.10042000  0.24477000  0.46171000  1
  H  H1133  1  0.60042000  0.25523000  0.53829000  1
  H  H1134  1  0.39958000  0.75523000  0.96171000  1
  H  H1135  1  0.89958000  0.74477000  0.03829000  1
  H  H1136  1  0.46171000  0.10042000  0.24477000  1
  H  H1137  1  0.53829000  0.60042000  0.25523000  1
  H  H1138  1  0.96171000  0.39958000  0.75523000  1
  H  H1139  1  0.03829000  0.89958000  0.74477000  1
  H  H1140  1  0.75523000  0.53829000  0.89958000  1
  H  H1141  1  0.74477000  0.46171000  0.39958000  1
  H  H1142  1  0.24477000  0.03829000  0.60042000  1
  H  H1143  1  0.25523000  0.96171000  0.10042000  1
  H  H1144  1  0.89958000  0.75523000  0.53829000  1
  H  H1145  1  0.39958000  0.74477000  0.46171000  1
  H  H1146  1  0.60042000  0.24477000  0.03829000  1
  H  H1147  1  0.10042000  0.25523000  0.96171000  1
  H  H1148  1  0.53829000  0.89958000  0.75523000  1
  H  H1149  1  0.46171000  0.39958000  0.74477000  1
  H  H1150  1  0.03829000  0.60042000  0.24477000  1
  H  H1151  1  0.96171000  0.10042000  0.25523000  1
  C  C1152  1  0.20243000  0.46233000  0.11382000  1
  C  C1153  1  0.29757000  0.53767000  0.61382000  1
  C  C1154  1  0.79757000  0.96233000  0.38618000  1
  C  C1155  1  0.70243000  0.03767000  0.88618000  1
  C  C1156  1  0.11382000  0.20243000  0.46233000  1
  C  C1157  1  0.61382000  0.29757000  0.53767000  1
  C  C1158  1  0.38618000  0.79757000  0.96233000  1
  C  C1159  1  0.88618000  0.70243000  0.03767000  1
  C  C1160  1  0.46233000  0.11382000  0.20243000  1
  C  C1161  1  0.53767000  0.61382000  0.29757000  1
  C  C1162  1  0.96233000  0.38618000  0.79757000  1
  C  C1163  1  0.03767000  0.88618000  0.70243000  1
  C  C1164  1  0.79757000  0.53767000  0.88618000  1
  C  C1165  1  0.70243000  0.46233000  0.38618000  1
  C  C1166  1  0.20243000  0.03767000  0.61382000  1
  C  C1167  1  0.29757000  0.96233000  0.11382000  1
  C  C1168  1  0.88618000  0.79757000  0.53767000  1
  C  C1169  1  0.38618000  0.70243000  0.46233000  1
  C  C1170  1  0.61382000  0.20243000  0.03767000  1
  C  C1171  1  0.11382000  0.29757000  0.96233000  1
  C  C1172  1  0.53767000  0.88618000  0.79757000  1
  C  C1173  1  0.46233000  0.38618000  0.70243000  1
  C  C1174  1  0.03767000  0.61382000  0.20243000  1
  C  C1175  1  0.96233000  0.11382000  0.29757000  1
  C  C1176  1  0.17383000  0.46413000  0.10423000  1
  C  C1177  1  0.32617000  0.53587000  0.60423000  1
  C  C1178  1  0.82617000  0.96413000  0.39577000  1
  C  C1179  1  0.67383000  0.03587000  0.89577000  1
  C  C1180  1  0.10423000  0.17383000  0.46413000  1
  C  C1181  1  0.60423000  0.32617000  0.53587000  1
  C  C1182  1  0.39577000  0.82617000  0.96413000  1
  C  C1183  1  0.89577000  0.67383000  0.03587000  1
  C  C1184  1  0.46413000  0.10423000  0.17383000  1
  C  C1185  1  0.53587000  0.60423000  0.32617000  1
  C  C1186  1  0.96413000  0.39577000  0.82617000  1
  C  C1187  1  0.03587000  0.89577000  0.67383000  1
  C  C1188  1  0.82617000  0.53587000  0.89577000  1
  C  C1189  1  0.67383000  0.46413000  0.39577000  1
  C  C1190  1  0.17383000  0.03587000  0.60423000  1
  C  C1191  1  0.32617000  0.96413000  0.10423000  1
  C  C1192  1  0.89577000  0.82617000  0.53587000  1
  C  C1193  1  0.39577000  0.67383000  0.46413000  1
  C  C1194  1  0.60423000  0.17383000  0.03587000  1
  C  C1195  1  0.10423000  0.32617000  0.96413000  1
  C  C1196  1  0.53587000  0.89577000  0.82617000  1
  C  C1197  1  0.46413000  0.39577000  0.67383000  1
  C  C1198  1  0.03587000  0.60423000  0.17383000  1
  C  C1199  1  0.96413000  0.10423000  0.32617000  1
  C  C1200  1  0.16792000  0.46663000  0.07463000  1
  C  C1201  1  0.33208000  0.53337000  0.57463000  1
  C  C1202  1  0.83208000  0.96663000  0.42537000  1
  C  C1203  1  0.66792000  0.03337000  0.92537000  1
  C  C1204  1  0.07463000  0.16792000  0.46663000  1
  C  C1205  1  0.57463000  0.33208000  0.53337000  1
  C  C1206  1  0.42537000  0.83208000  0.96663000  1
  C  C1207  1  0.92537000  0.66792000  0.03337000  1
  C  C1208  1  0.46663000  0.07463000  0.16792000  1
  C  C1209  1  0.53337000  0.57463000  0.33208000  1
  C  C1210  1  0.96663000  0.42537000  0.83208000  1
  C  C1211  1  0.03337000  0.92537000  0.66792000  1
  C  C1212  1  0.83208000  0.53337000  0.92537000  1
  C  C1213  1  0.66792000  0.46663000  0.42537000  1
  C  C1214  1  0.16792000  0.03337000  0.57463000  1
  C  C1215  1  0.33208000  0.96663000  0.07463000  1
  C  C1216  1  0.92537000  0.83208000  0.53337000  1
  C  C1217  1  0.42537000  0.66792000  0.46663000  1
  C  C1218  1  0.57463000  0.16792000  0.03337000  1
  C  C1219  1  0.07463000  0.33208000  0.96663000  1
  C  C1220  1  0.53337000  0.92537000  0.83208000  1
  C  C1221  1  0.46663000  0.42537000  0.66792000  1
  C  C1222  1  0.03337000  0.57463000  0.16792000  1
  C  C1223  1  0.96663000  0.07463000  0.33208000  1
  H  H1224  1  0.14835000  0.46786000  0.06798000  1
  H  H1225  1  0.35165000  0.53214000  0.56798000  1
  H  H1226  1  0.85165000  0.96786000  0.43202000  1
  H  H1227  1  0.64835000  0.03214000  0.93202000  1
  H  H1228  1  0.06798000  0.14835000  0.46786000  1
  H  H1229  1  0.56798000  0.35165000  0.53214000  1
  H  H1230  1  0.43202000  0.85165000  0.96786000  1
  H  H1231  1  0.93202000  0.64835000  0.03214000  1
  H  H1232  1  0.46786000  0.06798000  0.14835000  1
  H  H1233  1  0.53214000  0.56798000  0.35165000  1
  H  H1234  1  0.96786000  0.43202000  0.85165000  1
  H  H1235  1  0.03214000  0.93202000  0.64835000  1
  H  H1236  1  0.85165000  0.53214000  0.93202000  1
  H  H1237  1  0.64835000  0.46786000  0.43202000  1
  H  H1238  1  0.14835000  0.03214000  0.56798000  1
  H  H1239  1  0.35165000  0.96786000  0.06798000  1
  H  H1240  1  0.93202000  0.85165000  0.53214000  1
  H  H1241  1  0.43202000  0.64835000  0.46786000  1
  H  H1242  1  0.56798000  0.14835000  0.03214000  1
  H  H1243  1  0.06798000  0.35165000  0.96786000  1
  H  H1244  1  0.53214000  0.93202000  0.85165000  1
  H  H1245  1  0.46786000  0.43202000  0.64835000  1
  H  H1246  1  0.03214000  0.56798000  0.14835000  1
  H  H1247  1  0.96786000  0.06798000  0.35165000  1
  C  C1248  1  0.33064000  0.51954000  0.41464000  1
  C  C1249  1  0.16936000  0.48046000  0.91464000  1
  C  C1250  1  0.66936000  0.01954000  0.08536000  1
  C  C1251  1  0.83064000  0.98046000  0.58536000  1
  C  C1252  1  0.41464000  0.33064000  0.51954000  1
  C  C1253  1  0.91464000  0.16936000  0.48046000  1
  C  C1254  1  0.08536000  0.66936000  0.01954000  1
  C  C1255  1  0.58536000  0.83064000  0.98046000  1
  C  C1256  1  0.51954000  0.41464000  0.33064000  1
  C  C1257  1  0.48046000  0.91464000  0.16936000  1
  C  C1258  1  0.01954000  0.08536000  0.66936000  1
  C  C1259  1  0.98046000  0.58536000  0.83064000  1
  C  C1260  1  0.66936000  0.48046000  0.58536000  1
  C  C1261  1  0.83064000  0.51954000  0.08536000  1
  C  C1262  1  0.33064000  0.98046000  0.91464000  1
  C  C1263  1  0.16936000  0.01954000  0.41464000  1
  C  C1264  1  0.58536000  0.66936000  0.48046000  1
  C  C1265  1  0.08536000  0.83064000  0.51954000  1
  C  C1266  1  0.91464000  0.33064000  0.98046000  1
  C  C1267  1  0.41464000  0.16936000  0.01954000  1
  C  C1268  1  0.48046000  0.58536000  0.66936000  1
  C  C1269  1  0.51954000  0.08536000  0.83064000  1
  C  C1270  1  0.98046000  0.91464000  0.33064000  1
  C  C1271  1  0.01954000  0.41464000  0.16936000  1
  C  C1272  1  0.07964000  0.46336000  0.16844000  1
  C  C1273  1  0.42036000  0.53664000  0.66844000  1
  C  C1274  1  0.92036000  0.96336000  0.33156000  1
  C  C1275  1  0.57964000  0.03664000  0.83156000  1
  C  C1276  1  0.16844000  0.07964000  0.46336000  1
  C  C1277  1  0.66844000  0.42036000  0.53664000  1
  C  C1278  1  0.33156000  0.92036000  0.96336000  1
  C  C1279  1  0.83156000  0.57964000  0.03664000  1
  C  C1280  1  0.46336000  0.16844000  0.07964000  1
  C  C1281  1  0.53664000  0.66844000  0.42036000  1
  C  C1282  1  0.96336000  0.33156000  0.92036000  1
  C  C1283  1  0.03664000  0.83156000  0.57964000  1
  C  C1284  1  0.92036000  0.53664000  0.83156000  1
  C  C1285  1  0.57964000  0.46336000  0.33156000  1
  C  C1286  1  0.07964000  0.03664000  0.66844000  1
  C  C1287  1  0.42036000  0.96336000  0.16844000  1
  C  C1288  1  0.83156000  0.92036000  0.53664000  1
  C  C1289  1  0.33156000  0.57964000  0.46336000  1
  C  C1290  1  0.66844000  0.07964000  0.03664000  1
  C  C1291  1  0.16844000  0.42036000  0.96336000  1
  C  C1292  1  0.53664000  0.83156000  0.92036000  1
  C  C1293  1  0.46336000  0.33156000  0.57964000  1
  C  C1294  1  0.03664000  0.66844000  0.07964000  1
  C  C1295  1  0.96336000  0.16844000  0.42036000  1
  C  C1296  1  0.27004000  0.46846000  0.20314000  1
  C  C1297  1  0.22996000  0.53154000  0.70314000  1
  C  C1298  1  0.72996000  0.96846000  0.29686000  1
  C  C1299  1  0.77004000  0.03154000  0.79686000  1
  C  C1300  1  0.20314000  0.27004000  0.46846000  1
  C  C1301  1  0.70314000  0.22996000  0.53154000  1
  C  C1302  1  0.29686000  0.72996000  0.96846000  1
  C  C1303  1  0.79686000  0.77004000  0.03154000  1
  C  C1304  1  0.46846000  0.20314000  0.27004000  1
  C  C1305  1  0.53154000  0.70314000  0.22996000  1
  C  C1306  1  0.96846000  0.29686000  0.72996000  1
  C  C1307  1  0.03154000  0.79686000  0.77004000  1
  C  C1308  1  0.72996000  0.53154000  0.79686000  1
  C  C1309  1  0.77004000  0.46846000  0.29686000  1
  C  C1310  1  0.27004000  0.03154000  0.70314000  1
  C  C1311  1  0.22996000  0.96846000  0.20314000  1
  C  C1312  1  0.79686000  0.72996000  0.53154000  1
  C  C1313  1  0.29686000  0.77004000  0.46846000  1
  C  C1314  1  0.70314000  0.27004000  0.03154000  1
  C  C1315  1  0.20314000  0.22996000  0.96846000  1
  C  C1316  1  0.53154000  0.79686000  0.72996000  1
  C  C1317  1  0.46846000  0.29686000  0.77004000  1
  C  C1318  1  0.03154000  0.70314000  0.27004000  1
  C  C1319  1  0.96846000  0.20314000  0.22996000  1
  C  C1320  1  0.26564000  0.49064000  0.18316000  1
  C  C1321  1  0.23436000  0.50936000  0.68316000  1
  C  C1322  1  0.73436000  0.99064000  0.31684000  1
  C  C1323  1  0.76564000  0.00936000  0.81684000  1
  C  C1324  1  0.18316000  0.26564000  0.49064000  1
  C  C1325  1  0.68316000  0.23436000  0.50936000  1
  C  C1326  1  0.31684000  0.73436000  0.99064000  1
  C  C1327  1  0.81684000  0.76564000  0.00936000  1
  C  C1328  1  0.49064000  0.18316000  0.26564000  1
  C  C1329  1  0.50936000  0.68316000  0.23436000  1
  C  C1330  1  0.99064000  0.31684000  0.73436000  1
  C  C1331  1  0.00936000  0.81684000  0.76564000  1
  C  C1332  1  0.73436000  0.50936000  0.81684000  1
  C  C1333  1  0.76564000  0.49064000  0.31684000  1
  C  C1334  1  0.26564000  0.00936000  0.68316000  1
  C  C1335  1  0.23436000  0.99064000  0.18316000  1
  C  C1336  1  0.81684000  0.73436000  0.50936000  1
  C  C1337  1  0.31684000  0.76564000  0.49064000  1
  C  C1338  1  0.68316000  0.26564000  0.00936000  1
  C  C1339  1  0.18316000  0.23436000  0.99064000  1
  C  C1340  1  0.50936000  0.81684000  0.73436000  1
  C  C1341  1  0.49064000  0.31684000  0.76564000  1
  C  C1342  1  0.00936000  0.68316000  0.26564000  1
  C  C1343  1  0.99064000  0.18316000  0.23436000  1
  H  H1344  1  0.27786000  0.50731000  0.18329000  1
  H  H1345  1  0.22214000  0.49269000  0.68329000  1
  H  H1346  1  0.72214000  0.00731000  0.31671000  1
  H  H1347  1  0.77786000  0.99269000  0.81671000  1
  H  H1348  1  0.18329000  0.27786000  0.50731000  1
  H  H1349  1  0.68329000  0.22214000  0.49269000  1
  H  H1350  1  0.31671000  0.72214000  0.00731000  1
  H  H1351  1  0.81671000  0.77786000  0.99269000  1
  H  H1352  1  0.50731000  0.18329000  0.27786000  1
  H  H1353  1  0.49269000  0.68329000  0.22214000  1
  H  H1354  1  0.00731000  0.31671000  0.72214000  1
  H  H1355  1  0.99269000  0.81671000  0.77786000  1
  H  H1356  1  0.72214000  0.49269000  0.81671000  1
  H  H1357  1  0.77786000  0.50731000  0.31671000  1
  H  H1358  1  0.27786000  0.99269000  0.68329000  1
  H  H1359  1  0.22214000  0.00731000  0.18329000  1
  H  H1360  1  0.81671000  0.72214000  0.49269000  1
  H  H1361  1  0.31671000  0.77786000  0.50731000  1
  H  H1362  1  0.68329000  0.27786000  0.99269000  1
  H  H1363  1  0.18329000  0.22214000  0.00731000  1
  H  H1364  1  0.49269000  0.81671000  0.72214000  1
  H  H1365  1  0.50731000  0.31671000  0.77786000  1
  H  H1366  1  0.99269000  0.68329000  0.27786000  1
  H  H1367  1  0.00731000  0.18329000  0.22214000  1
  C  C1368  1  0.24345000  0.48855000  0.16265000  1
  C  C1369  1  0.25655000  0.51145000  0.66265000  1
  C  C1370  1  0.75655000  0.98855000  0.33735000  1
  C  C1371  1  0.74345000  0.01145000  0.83735000  1
  C  C1372  1  0.16265000  0.24345000  0.48855000  1
  C  C1373  1  0.66265000  0.25655000  0.51145000  1
  C  C1374  1  0.33735000  0.75655000  0.98855000  1
  C  C1375  1  0.83735000  0.74345000  0.01145000  1
  C  C1376  1  0.48855000  0.16265000  0.24345000  1
  C  C1377  1  0.51145000  0.66265000  0.25655000  1
  C  C1378  1  0.98855000  0.33735000  0.75655000  1
  C  C1379  1  0.01145000  0.83735000  0.74345000  1
  C  C1380  1  0.75655000  0.51145000  0.83735000  1
  C  C1381  1  0.74345000  0.48855000  0.33735000  1
  C  C1382  1  0.24345000  0.01145000  0.66265000  1
  C  C1383  1  0.25655000  0.98855000  0.16265000  1
  C  C1384  1  0.83735000  0.75655000  0.51145000  1
  C  C1385  1  0.33735000  0.74345000  0.48855000  1
  C  C1386  1  0.66265000  0.24345000  0.01145000  1
  C  C1387  1  0.16265000  0.25655000  0.98855000  1
  C  C1388  1  0.51145000  0.83735000  0.75655000  1
  C  C1389  1  0.48855000  0.33735000  0.74345000  1
  C  C1390  1  0.01145000  0.66265000  0.24345000  1
  C  C1391  1  0.98855000  0.16265000  0.25655000  1
  H  H1392  1  0.24039000  0.50370000  0.14894000  1
  H  H1393  1  0.25961000  0.49630000  0.64894000  1
  H  H1394  1  0.75961000  0.00370000  0.35106000  1
  H  H1395  1  0.74039000  0.00000000  0.85106000  1
  H  H1396  1  0.14894000  0.24039000  0.50370000  1
  H  H1397  1  0.64894000  0.25961000  0.49630000  1
  H  H1398  1  0.35106000  0.75961000  0.00370000  1
  H  H1399  1  0.85106000  0.74039000  0.00000000  1
  H  H1400  1  0.50370000  0.14894000  0.24039000  1
  H  H1401  1  0.49630000  0.64894000  0.25961000  1
  H  H1402  1  0.00370000  0.35106000  0.75961000  1
  H  H1403  1  0.00000000  0.85106000  0.74039000  1
  H  H1404  1  0.75961000  0.49630000  0.85106000  1
  H  H1405  1  0.74039000  0.50370000  0.35106000  1
  H  H1406  1  0.24039000  0.00000000  0.64894000  1
  H  H1407  1  0.25961000  0.00370000  0.14894000  1
  H  H1408  1  0.85106000  0.75961000  0.49630000  1
  H  H1409  1  0.35106000  0.74039000  0.50370000  1
  H  H1410  1  0.64894000  0.24039000  0.00000000  1
  H  H1411  1  0.14894000  0.25961000  0.00370000  1
  H  H1412  1  0.49630000  0.85106000  0.75961000  1
  H  H1413  1  0.50370000  0.35106000  0.74039000  1
  H  H1414  1  0.00000000  0.64894000  0.24039000  1
  H  H1415  1  0.00370000  0.14894000  0.25961000  1
  C  C1416  1  0.22544000  0.46416000  0.16234000  1
  C  C1417  1  0.27456000  0.53584000  0.66234000  1
  C  C1418  1  0.77456000  0.96416000  0.33766000  1
  C  C1419  1  0.72544000  0.03584000  0.83766000  1
  C  C1420  1  0.16234000  0.22544000  0.46416000  1
  C  C1421  1  0.66234000  0.27456000  0.53584000  1
  C  C1422  1  0.33766000  0.77456000  0.96416000  1
  C  C1423  1  0.83766000  0.72544000  0.03584000  1
  C  C1424  1  0.46416000  0.16234000  0.22544000  1
  C  C1425  1  0.53584000  0.66234000  0.27456000  1
  C  C1426  1  0.96416000  0.33766000  0.77456000  1
  C  C1427  1  0.03584000  0.83766000  0.72544000  1
  C  C1428  1  0.77456000  0.53584000  0.83766000  1
  C  C1429  1  0.72544000  0.46416000  0.33766000  1
  C  C1430  1  0.22544000  0.03584000  0.66234000  1
  C  C1431  1  0.27456000  0.96416000  0.16234000  1
  C  C1432  1  0.83766000  0.77456000  0.53584000  1
  C  C1433  1  0.33766000  0.72544000  0.46416000  1
  C  C1434  1  0.66234000  0.22544000  0.03584000  1
  C  C1435  1  0.16234000  0.27456000  0.96416000  1
  C  C1436  1  0.53584000  0.83766000  0.77456000  1
  C  C1437  1  0.46416000  0.33766000  0.72544000  1
  C  C1438  1  0.03584000  0.66234000  0.22544000  1
  C  C1439  1  0.96416000  0.16234000  0.27456000  1
  C  C1440  1  0.22984000  0.44184000  0.18236000  1
  C  C1441  1  0.27016000  0.55816000  0.68236000  1
  C  C1442  1  0.77016000  0.94184000  0.31764000  1
  C  C1443  1  0.72984000  0.05816000  0.81764000  1
  C  C1444  1  0.18236000  0.22984000  0.44184000  1
  C  C1445  1  0.68236000  0.27016000  0.55816000  1
  C  C1446  1  0.31764000  0.77016000  0.94184000  1
  C  C1447  1  0.81764000  0.72984000  0.05816000  1
  C  C1448  1  0.44184000  0.18236000  0.22984000  1
  C  C1449  1  0.55816000  0.68236000  0.27016000  1
  C  C1450  1  0.94184000  0.31764000  0.77016000  1
  C  C1451  1  0.05816000  0.81764000  0.72984000  1
  C  C1452  1  0.77016000  0.55816000  0.81764000  1
  C  C1453  1  0.72984000  0.44184000  0.31764000  1
  C  C1454  1  0.22984000  0.05816000  0.68236000  1
  C  C1455  1  0.27016000  0.94184000  0.18236000  1
  C  C1456  1  0.81764000  0.77016000  0.55816000  1
  C  C1457  1  0.31764000  0.72984000  0.44184000  1
  C  C1458  1  0.68236000  0.22984000  0.05816000  1
  C  C1459  1  0.18236000  0.27016000  0.94184000  1
  C  C1460  1  0.55816000  0.81764000  0.77016000  1
  C  C1461  1  0.44184000  0.31764000  0.72984000  1
  C  C1462  1  0.05816000  0.68236000  0.22984000  1
  C  C1463  1  0.94184000  0.18236000  0.27016000  1
  H  H1464  1  0.21754000  0.42516000  0.18210000  1
  H  H1465  1  0.28246000  0.57484000  0.68210000  1
  H  H1466  1  0.78246000  0.92516000  0.31790000  1
  H  H1467  1  0.71754000  0.07484000  0.81790000  1
  H  H1468  1  0.18210000  0.21754000  0.42516000  1
  H  H1469  1  0.68210000  0.28246000  0.57484000  1
  H  H1470  1  0.31790000  0.78246000  0.92516000  1
  H  H1471  1  0.81790000  0.71754000  0.07484000  1
  H  H1472  1  0.42516000  0.18210000  0.21754000  1
  H  H1473  1  0.57484000  0.68210000  0.28246000  1
  H  H1474  1  0.92516000  0.31790000  0.78246000  1
  H  H1475  1  0.07484000  0.81790000  0.71754000  1
  H  H1476  1  0.78246000  0.57484000  0.81790000  1
  H  H1477  1  0.71754000  0.42516000  0.31790000  1
  H  H1478  1  0.21754000  0.07484000  0.68210000  1
  H  H1479  1  0.28246000  0.92516000  0.18210000  1
  H  H1480  1  0.81790000  0.78246000  0.57484000  1
  H  H1481  1  0.31790000  0.71754000  0.42516000  1
  H  H1482  1  0.68210000  0.21754000  0.07484000  1
  H  H1483  1  0.18210000  0.28246000  0.92516000  1
  H  H1484  1  0.57484000  0.81790000  0.78246000  1
  H  H1485  1  0.42516000  0.31790000  0.71754000  1
  H  H1486  1  0.07484000  0.68210000  0.21754000  1
  H  H1487  1  0.92516000  0.18210000  0.28246000  1
  C  C1488  1  0.25205000  0.44405000  0.20275000  1
  C  C1489  1  0.24795000  0.55595000  0.70275000  1
  C  C1490  1  0.74795000  0.94405000  0.29725000  1
  C  C1491  1  0.75205000  0.05595000  0.79725000  1
  C  C1492  1  0.20275000  0.25205000  0.44405000  1
  C  C1493  1  0.70275000  0.24795000  0.55595000  1
  C  C1494  1  0.29725000  0.74795000  0.94405000  1
  C  C1495  1  0.79725000  0.75205000  0.05595000  1
  C  C1496  1  0.44405000  0.20275000  0.25205000  1
  C  C1497  1  0.55595000  0.70275000  0.24795000  1
  C  C1498  1  0.94405000  0.29725000  0.74795000  1
  C  C1499  1  0.05595000  0.79725000  0.75205000  1
  C  C1500  1  0.74795000  0.55595000  0.79725000  1
  C  C1501  1  0.75205000  0.44405000  0.29725000  1
  C  C1502  1  0.25205000  0.05595000  0.70275000  1
  C  C1503  1  0.24795000  0.94405000  0.20275000  1
  C  C1504  1  0.79725000  0.74795000  0.55595000  1
  C  C1505  1  0.29725000  0.75205000  0.44405000  1
  C  C1506  1  0.70275000  0.25205000  0.05595000  1
  C  C1507  1  0.20275000  0.24795000  0.94405000  1
  C  C1508  1  0.55595000  0.79725000  0.74795000  1
  C  C1509  1  0.44405000  0.29725000  0.75205000  1
  C  C1510  1  0.05595000  0.70275000  0.25205000  1
  C  C1511  1  0.94405000  0.20275000  0.24795000  1
  H  H1512  1  0.25501000  0.42876000  0.21645000  1
  H  H1513  1  0.24499000  0.57124000  0.71645000  1
  H  H1514  1  0.74499000  0.92876000  0.28355000  1
  H  H1515  1  0.75501000  0.07124000  0.78355000  1
  H  H1516  1  0.21645000  0.25501000  0.42876000  1
  H  H1517  1  0.71645000  0.24499000  0.57124000  1
  H  H1518  1  0.28355000  0.74499000  0.92876000  1
  H  H1519  1  0.78355000  0.75501000  0.07124000  1
  H  H1520  1  0.42876000  0.21645000  0.25501000  1
  H  H1521  1  0.57124000  0.71645000  0.24499000  1
  H  H1522  1  0.92876000  0.28355000  0.74499000  1
  H  H1523  1  0.07124000  0.78355000  0.75501000  1
  H  H1524  1  0.74499000  0.57124000  0.78355000  1
  H  H1525  1  0.75501000  0.42876000  0.28355000  1
  H  H1526  1  0.25501000  0.07124000  0.71645000  1
  H  H1527  1  0.24499000  0.92876000  0.21645000  1
  H  H1528  1  0.78355000  0.74499000  0.57124000  1
  H  H1529  1  0.28355000  0.75501000  0.42876000  1
  H  H1530  1  0.71645000  0.25501000  0.07124000  1
  H  H1531  1  0.21645000  0.24499000  0.92876000  1
  H  H1532  1  0.57124000  0.78355000  0.74499000  1
  H  H1533  1  0.42876000  0.28355000  0.75501000  1
  H  H1534  1  0.07124000  0.71645000  0.25501000  1
  H  H1535  1  0.92876000  0.21645000  0.24499000  1
  C  C1536  1  0.33054000  0.48125000  0.27274000  1
  C  C1537  1  0.16946000  0.51875000  0.77274000  1
  C  C1538  1  0.66946000  0.98125000  0.22726000  1
  C  C1539  1  0.83054000  0.01875000  0.72726000  1
  C  C1540  1  0.27274000  0.33054000  0.48125000  1
  C  C1541  1  0.77274000  0.16946000  0.51875000  1
  C  C1542  1  0.22726000  0.66946000  0.98125000  1
  C  C1543  1  0.72726000  0.83054000  0.01875000  1
  C  C1544  1  0.48125000  0.27274000  0.33054000  1
  C  C1545  1  0.51875000  0.77274000  0.16946000  1
  C  C1546  1  0.98125000  0.22726000  0.66946000  1
  C  C1547  1  0.01875000  0.72726000  0.83054000  1
  C  C1548  1  0.66946000  0.51875000  0.72726000  1
  C  C1549  1  0.83054000  0.48125000  0.22726000  1
  C  C1550  1  0.33054000  0.01875000  0.77274000  1
  C  C1551  1  0.16946000  0.98125000  0.27274000  1
  C  C1552  1  0.72726000  0.66946000  0.51875000  1
  C  C1553  1  0.22726000  0.83054000  0.48125000  1
  C  C1554  1  0.77274000  0.33054000  0.01875000  1
  C  C1555  1  0.27274000  0.16946000  0.98125000  1
  C  C1556  1  0.51875000  0.72726000  0.66946000  1
  C  C1557  1  0.48125000  0.22726000  0.83054000  1
  C  C1558  1  0.01875000  0.77274000  0.33054000  1
  C  C1559  1  0.98125000  0.27274000  0.16946000  1
  C  C1560  1  0.31185000  0.45734000  0.27254000  1
  C  C1561  1  0.18815000  0.54266000  0.77254000  1
  C  C1562  1  0.68815000  0.95734000  0.22746000  1
  C  C1563  1  0.81185000  0.04266000  0.72746000  1
  C  C1564  1  0.27254000  0.31185000  0.45734000  1
  C  C1565  1  0.77254000  0.18815000  0.54266000  1
  C  C1566  1  0.22746000  0.68815000  0.95734000  1
  C  C1567  1  0.72746000  0.81185000  0.04266000  1
  C  C1568  1  0.45734000  0.27254000  0.31185000  1
  C  C1569  1  0.54266000  0.77254000  0.18815000  1
  C  C1570  1  0.95734000  0.22746000  0.68815000  1
  C  C1571  1  0.04266000  0.72746000  0.81185000  1
  C  C1572  1  0.68815000  0.54266000  0.72746000  1
  C  C1573  1  0.81185000  0.45734000  0.22746000  1
  C  C1574  1  0.31185000  0.04266000  0.77254000  1
  C  C1575  1  0.18815000  0.95734000  0.27254000  1
  C  C1576  1  0.72746000  0.68815000  0.54266000  1
  C  C1577  1  0.22746000  0.81185000  0.45734000  1
  C  C1578  1  0.77254000  0.31185000  0.04266000  1
  C  C1579  1  0.27254000  0.18815000  0.95734000  1
  C  C1580  1  0.54266000  0.72746000  0.68815000  1
  C  C1581  1  0.45734000  0.22746000  0.81185000  1
  C  C1582  1  0.04266000  0.77254000  0.31185000  1
  C  C1583  1  0.95734000  0.27254000  0.18815000  1
  H  H1584  1  0.31399000  0.44239000  0.28660000  1
  H  H1585  1  0.18601000  0.55761000  0.78660000  1
  H  H1586  1  0.68601000  0.94239000  0.21340000  1
  H  H1587  1  0.81399000  0.05761000  0.71340000  1
  H  H1588  1  0.28660000  0.31399000  0.44239000  1
  H  H1589  1  0.78660000  0.18601000  0.55761000  1
  H  H1590  1  0.21340000  0.68601000  0.94239000  1
  H  H1591  1  0.71340000  0.81399000  0.05761000  1
  H  H1592  1  0.44239000  0.28660000  0.31399000  1
  H  H1593  1  0.55761000  0.78660000  0.18601000  1
  H  H1594  1  0.94239000  0.21340000  0.68601000  1
  H  H1595  1  0.05761000  0.71340000  0.81399000  1
  H  H1596  1  0.68601000  0.55761000  0.71340000  1
  H  H1597  1  0.81399000  0.44239000  0.21340000  1
  H  H1598  1  0.31399000  0.05761000  0.78660000  1
  H  H1599  1  0.18601000  0.94239000  0.28660000  1
  H  H1600  1  0.71340000  0.68601000  0.55761000  1
  H  H1601  1  0.21340000  0.81399000  0.44239000  1
  H  H1602  1  0.78660000  0.31399000  0.05761000  1
  H  H1603  1  0.28660000  0.18601000  0.94239000  1
  H  H1604  1  0.55761000  0.71340000  0.68601000  1
  H  H1605  1  0.44239000  0.21340000  0.81399000  1
  H  H1606  1  0.05761000  0.78660000  0.31399000  1
  H  H1607  1  0.94239000  0.28660000  0.18601000  1
  C  C1608  1  0.29005000  0.45534000  0.25155000  1
  C  C1609  1  0.20995000  0.54466000  0.75155000  1
  C  C1610  1  0.70995000  0.95534000  0.24845000  1
  C  C1611  1  0.79005000  0.04466000  0.74845000  1
  C  C1612  1  0.25155000  0.29005000  0.45534000  1
  C  C1613  1  0.75155000  0.20995000  0.54466000  1
  C  C1614  1  0.24845000  0.70995000  0.95534000  1
  C  C1615  1  0.74845000  0.79005000  0.04466000  1
  C  C1616  1  0.45534000  0.25155000  0.29005000  1
  C  C1617  1  0.54466000  0.75155000  0.20995000  1
  C  C1618  1  0.95534000  0.24845000  0.70995000  1
  C  C1619  1  0.04466000  0.74845000  0.79005000  1
  C  C1620  1  0.70995000  0.54466000  0.74845000  1
  C  C1621  1  0.79005000  0.45534000  0.24845000  1
  C  C1622  1  0.29005000  0.04466000  0.75155000  1
  C  C1623  1  0.20995000  0.95534000  0.25155000  1
  C  C1624  1  0.74845000  0.70995000  0.54466000  1
  C  C1625  1  0.24845000  0.79005000  0.45534000  1
  C  C1626  1  0.75155000  0.29005000  0.04466000  1
  C  C1627  1  0.25155000  0.20995000  0.95534000  1
  C  C1628  1  0.54466000  0.74845000  0.70995000  1
  C  C1629  1  0.45534000  0.24845000  0.79005000  1
  C  C1630  1  0.04466000  0.75155000  0.29005000  1
  C  C1631  1  0.95534000  0.25155000  0.20995000  1
  H  H1632  1  0.27729000  0.43905000  0.25141000  1
  H  H1633  1  0.22271000  0.56095000  0.75141000  1
  H  H1634  1  0.72271000  0.93905000  0.24859000  1
  H  H1635  1  0.77729000  0.06095000  0.74859000  1
  H  H1636  1  0.25141000  0.27729000  0.43905000  1
  H  H1637  1  0.75141000  0.22271000  0.56095000  1
  H  H1638  1  0.24859000  0.72271000  0.93905000  1
  H  H1639  1  0.74859000  0.77729000  0.06095000  1
  H  H1640  1  0.43905000  0.25141000  0.27729000  1
  H  H1641  1  0.56095000  0.75141000  0.22271000  1
  H  H1642  1  0.93905000  0.24859000  0.72271000  1
  H  H1643  1  0.06095000  0.74859000  0.77729000  1
  H  H1644  1  0.72271000  0.56095000  0.74859000  1
  H  H1645  1  0.77729000  0.43905000  0.24859000  1
  H  H1646  1  0.27729000  0.06095000  0.75141000  1
  H  H1647  1  0.22271000  0.93905000  0.25141000  1
  H  H1648  1  0.74859000  0.72271000  0.56095000  1
  H  H1649  1  0.24859000  0.77729000  0.43905000  1
  H  H1650  1  0.75141000  0.27729000  0.06095000  1
  H  H1651  1  0.25141000  0.22271000  0.93905000  1
  H  H1652  1  0.56095000  0.74859000  0.72271000  1
  H  H1653  1  0.43905000  0.24859000  0.77729000  1
  H  H1654  1  0.06095000  0.75141000  0.27729000  1
  H  H1655  1  0.93905000  0.25141000  0.22271000  1
  C  C1656  1  0.28694000  0.47725000  0.23084000  1
  C  C1657  1  0.21306000  0.52275000  0.73084000  1
  C  C1658  1  0.71306000  0.97725000  0.26916000  1
  C  C1659  1  0.78694000  0.02275000  0.76916000  1
  C  C1660  1  0.23084000  0.28694000  0.47725000  1
  C  C1661  1  0.73084000  0.21306000  0.52275000  1
  C  C1662  1  0.26916000  0.71306000  0.97725000  1
  C  C1663  1  0.76916000  0.78694000  0.02275000  1
  C  C1664  1  0.47725000  0.23084000  0.28694000  1
  C  C1665  1  0.52275000  0.73084000  0.21306000  1
  C  C1666  1  0.97725000  0.26916000  0.71306000  1
  C  C1667  1  0.02275000  0.76916000  0.78694000  1
  C  C1668  1  0.71306000  0.52275000  0.76916000  1
  C  C1669  1  0.78694000  0.47725000  0.26916000  1
  C  C1670  1  0.28694000  0.02275000  0.73084000  1
  C  C1671  1  0.21306000  0.97725000  0.23084000  1
  C  C1672  1  0.76916000  0.71306000  0.52275000  1
  C  C1673  1  0.26916000  0.78694000  0.47725000  1
  C  C1674  1  0.73084000  0.28694000  0.02275000  1
  C  C1675  1  0.23084000  0.21306000  0.97725000  1
  C  C1676  1  0.52275000  0.76916000  0.71306000  1
  C  C1677  1  0.47725000  0.26916000  0.78694000  1
  C  C1678  1  0.02275000  0.73084000  0.28694000  1
  C  C1679  1  0.97725000  0.23084000  0.21306000  1
  C  C1680  1  0.30555000  0.50104000  0.23114000  1
  C  C1681  1  0.19445000  0.49896000  0.73114000  1
  C  C1682  1  0.69445000  0.00104000  0.26886000  1
  C  C1683  1  0.80555000  0.00000000  0.76886000  1
  C  C1684  1  0.23114000  0.30555000  0.50104000  1
  C  C1685  1  0.73114000  0.19445000  0.49896000  1
  C  C1686  1  0.26886000  0.69445000  0.00104000  1
  C  C1687  1  0.76886000  0.80555000  0.00000000  1
  C  C1688  1  0.50104000  0.23114000  0.30555000  1
  C  C1689  1  0.49896000  0.73114000  0.19445000  1
  C  C1690  1  0.00104000  0.26886000  0.69445000  1
  C  C1691  1  0.00000000  0.76886000  0.80555000  1
  C  C1692  1  0.69445000  0.49896000  0.76886000  1
  C  C1693  1  0.80555000  0.50104000  0.26886000  1
  C  C1694  1  0.30555000  0.00000000  0.73114000  1
  C  C1695  1  0.19445000  0.00104000  0.23114000  1
  C  C1696  1  0.76886000  0.69445000  0.49896000  1
  C  C1697  1  0.26886000  0.80555000  0.50104000  1
  C  C1698  1  0.73114000  0.30555000  0.00000000  1
  C  C1699  1  0.23114000  0.19445000  0.00104000  1
  C  C1700  1  0.49896000  0.76886000  0.69445000  1
  C  C1701  1  0.50104000  0.26886000  0.80555000  1
  C  C1702  1  0.00000000  0.73114000  0.30555000  1
  C  C1703  1  0.00104000  0.23114000  0.19445000  1
  H  H1704  1  0.30340000  0.51598000  0.21690000  1
  H  H1705  1  0.19660000  0.48402000  0.71690000  1
  H  H1706  1  0.69660000  0.01598000  0.28310000  1
  H  H1707  1  0.80340000  0.98402000  0.78310000  1
  H  H1708  1  0.21690000  0.30340000  0.51598000  1
  H  H1709  1  0.71690000  0.19660000  0.48402000  1
  H  H1710  1  0.28310000  0.69660000  0.01598000  1
  H  H1711  1  0.78310000  0.80340000  0.98402000  1
  H  H1712  1  0.51598000  0.21690000  0.30340000  1
  H  H1713  1  0.48402000  0.71690000  0.19660000  1
  H  H1714  1  0.01598000  0.28310000  0.69660000  1
  H  H1715  1  0.98402000  0.78310000  0.80340000  1
  H  H1716  1  0.69660000  0.48402000  0.78310000  1
  H  H1717  1  0.80340000  0.51598000  0.28310000  1
  H  H1718  1  0.30340000  0.98402000  0.71690000  1
  H  H1719  1  0.19660000  0.01598000  0.21690000  1
  H  H1720  1  0.78310000  0.69660000  0.48402000  1
  H  H1721  1  0.28310000  0.80340000  0.51598000  1
  H  H1722  1  0.71690000  0.30340000  0.98402000  1
  H  H1723  1  0.21690000  0.19660000  0.01598000  1
  H  H1724  1  0.48402000  0.78310000  0.69660000  1
  H  H1725  1  0.51598000  0.28310000  0.80340000  1
  H  H1726  1  0.98402000  0.71690000  0.30340000  1
  H  H1727  1  0.01598000  0.21690000  0.19660000  1
  C  C1728  1  0.32745000  0.50304000  0.25205000  1
  C  C1729  1  0.17255000  0.49696000  0.75205000  1
  C  C1730  1  0.67255000  0.00304000  0.24795000  1
  C  C1731  1  0.82745000  0.00000000  0.74795000  1
  C  C1732  1  0.25205000  0.32745000  0.50304000  1
  C  C1733  1  0.75205000  0.17255000  0.49696000  1
  C  C1734  1  0.24795000  0.67255000  0.00304000  1
  C  C1735  1  0.74795000  0.82745000  0.00000000  1
  C  C1736  1  0.50304000  0.25205000  0.32745000  1
  C  C1737  1  0.49696000  0.75205000  0.17255000  1
  C  C1738  1  0.00304000  0.24795000  0.67255000  1
  C  C1739  1  0.00000000  0.74795000  0.82745000  1
  C  C1740  1  0.67255000  0.49696000  0.74795000  1
  C  C1741  1  0.82745000  0.50304000  0.24795000  1
  C  C1742  1  0.32745000  0.00000000  0.75205000  1
  C  C1743  1  0.17255000  0.00304000  0.25205000  1
  C  C1744  1  0.74795000  0.67255000  0.49696000  1
  C  C1745  1  0.24795000  0.82745000  0.50304000  1
  C  C1746  1  0.75205000  0.32745000  0.00000000  1
  C  C1747  1  0.25205000  0.17255000  0.00304000  1
  C  C1748  1  0.49696000  0.74795000  0.67255000  1
  C  C1749  1  0.50304000  0.24795000  0.82745000  1
  C  C1750  1  0.00000000  0.75205000  0.32745000  1
  C  C1751  1  0.00304000  0.25205000  0.17255000  1
  H  H1752  1  0.34010000  0.51931000  0.25210000  1
  H  H1753  1  0.15990000  0.48069000  0.75210000  1
  H  H1754  1  0.65990000  0.01931000  0.24790000  1
  H  H1755  1  0.84010000  0.98069000  0.74790000  1
  H  H1756  1  0.25210000  0.34010000  0.51931000  1
  H  H1757  1  0.75210000  0.15990000  0.48069000  1
  H  H1758  1  0.24790000  0.65990000  0.01931000  1
  H  H1759  1  0.74790000  0.84010000  0.98069000  1
  H  H1760  1  0.51931000  0.25210000  0.34010000  1
  H  H1761  1  0.48069000  0.75210000  0.15990000  1
  H  H1762  1  0.01931000  0.24790000  0.65990000  1
  H  H1763  1  0.98069000  0.74790000  0.84010000  1
  H  H1764  1  0.65990000  0.48069000  0.74790000  1
  H  H1765  1  0.84010000  0.51931000  0.24790000  1
  H  H1766  1  0.34010000  0.98069000  0.75210000  1
  H  H1767  1  0.15990000  0.01931000  0.25210000  1
  H  H1768  1  0.74790000  0.65990000  0.48069000  1
  H  H1769  1  0.24790000  0.84010000  0.51931000  1
  H  H1770  1  0.75210000  0.34010000  0.98069000  1
  H  H1771  1  0.25210000  0.15990000  0.01931000  1
  H  H1772  1  0.48069000  0.74790000  0.65990000  1
  H  H1773  1  0.51931000  0.24790000  0.84010000  1
  H  H1774  1  0.98069000  0.75210000  0.34010000  1
  H  H1775  1  0.01931000  0.25210000  0.15990000  1
