# generated using pymatgen
data_MnH10C20NO5
_symmetry_space_group_name_H-M   'P 1'
_cell_length_a   45.80050000
_cell_length_b   45.80050000
_cell_length_c   45.80050000
_cell_angle_alpha   90.00000000
_cell_angle_beta   90.00000000
_cell_angle_gamma   90.00000000
_symmetry_Int_Tables_number   1
_chemical_formula_structural   MnH10C20NO5
_chemical_formula_sum   'Mn48 H480 C960 N48 O240'
_cell_volume   96075.05849435
_cell_formula_units_Z   48
loop_
 _symmetry_equiv_pos_site_id
 _symmetry_equiv_pos_as_xyz
  1  'x, y, z'
loop_
 _atom_site_type_symbol
 _atom_site_label
 _atom_site_symmetry_multiplicity
 _atom_site_fract_x
 _atom_site_fract_y
 _atom_site_fract_z
 _atom_site_occupancy
  Mn  Mn0  1  0.14413200  0.47653300  0.96784700  1
  Mn  Mn1  1  0.35586800  0.52346700  0.46784700  1
  Mn  Mn2  1  0.85586800  0.97653300  0.53215300  1
  Mn  Mn3  1  0.64413200  0.02346700  0.03215300  1
  Mn  Mn4  1  0.96784700  0.14413200  0.47653300  1
  Mn  Mn5  1  0.46784700  0.35586800  0.52346700  1
  Mn  Mn6  1  0.53215300  0.85586800  0.97653300  1
  Mn  Mn7  1  0.03215300  0.64413200  0.02346700  1
  Mn  Mn8  1  0.47653300  0.96784700  0.14413200  1
  Mn  Mn9  1  0.52346700  0.46784700  0.35586800  1
  Mn  Mn10  1  0.97653300  0.53215300  0.85586800  1
  Mn  Mn11  1  0.02346700  0.03215300  0.64413200  1
  Mn  Mn12  1  0.85586800  0.52346700  0.03215300  1
  Mn  Mn13  1  0.64413200  0.47653300  0.53215300  1
  Mn  Mn14  1  0.14413200  0.02346700  0.46784700  1
  Mn  Mn15  1  0.35586800  0.97653300  0.96784700  1
  Mn  Mn16  1  0.03215300  0.85586800  0.52346700  1
  Mn  Mn17  1  0.53215300  0.64413200  0.47653300  1
  Mn  Mn18  1  0.46784700  0.14413200  0.02346700  1
  Mn  Mn19  1  0.96784700  0.35586800  0.97653300  1
  Mn  Mn20  1  0.52346700  0.03215300  0.85586800  1
  Mn  Mn21  1  0.47653300  0.53215300  0.64413200  1
  Mn  Mn22  1  0.02346700  0.46784700  0.14413200  1
  Mn  Mn23  1  0.97653300  0.96784700  0.35586800  1
  Mn  Mn24  1  0.20876300  0.46416300  0.95406700  1
  Mn  Mn25  1  0.29123700  0.53583700  0.45406700  1
  Mn  Mn26  1  0.79123700  0.96416300  0.54593300  1
  Mn  Mn27  1  0.70876300  0.03583700  0.04593300  1
  Mn  Mn28  1  0.95406700  0.20876300  0.46416300  1
  Mn  Mn29  1  0.45406700  0.29123700  0.53583700  1
  Mn  Mn30  1  0.54593300  0.79123700  0.96416300  1
  Mn  Mn31  1  0.04593300  0.70876300  0.03583700  1
  Mn  Mn32  1  0.46416300  0.95406700  0.20876300  1
  Mn  Mn33  1  0.53583700  0.45406700  0.29123700  1
  Mn  Mn34  1  0.96416300  0.54593300  0.79123700  1
  Mn  Mn35  1  0.03583700  0.04593300  0.70876300  1
  Mn  Mn36  1  0.79123700  0.53583700  0.04593300  1
  Mn  Mn37  1  0.70876300  0.46416300  0.54593300  1
  Mn  Mn38  1  0.20876300  0.03583700  0.45406700  1
  Mn  Mn39  1  0.29123700  0.96416300  0.95406700  1
  Mn  Mn40  1  0.04593300  0.79123700  0.53583700  1
  Mn  Mn41  1  0.54593300  0.70876300  0.46416300  1
  Mn  Mn42  1  0.45406700  0.20876300  0.03583700  1
  Mn  Mn43  1  0.95406700  0.29123700  0.96416300  1
  Mn  Mn44  1  0.53583700  0.04593300  0.79123700  1
  Mn  Mn45  1  0.46416300  0.54593300  0.70876300  1
  Mn  Mn46  1  0.03583700  0.45406700  0.20876300  1
  Mn  Mn47  1  0.96416300  0.95406700  0.29123700  1
  O  O48  1  0.16082170  0.46639130  0.00796130  1
  O  O49  1  0.33917830  0.53360870  0.50796130  1
  O  O50  1  0.83917830  0.96639130  0.49203870  1
  O  O51  1  0.66082170  0.03360870  0.99203870  1
  O  O52  1  0.00796130  0.16082170  0.46639130  1
  O  O53  1  0.50796130  0.33917830  0.53360870  1
  O  O54  1  0.49203870  0.83917830  0.96639130  1
  O  O55  1  0.99203870  0.66082170  0.03360870  1
  O  O56  1  0.46639130  0.00796130  0.16082170  1
  O  O57  1  0.53360870  0.50796130  0.33917830  1
  O  O58  1  0.96639130  0.49203870  0.83917830  1
  O  O59  1  0.03360870  0.99203870  0.66082170  1
  O  O60  1  0.83917830  0.53360870  0.99203870  1
  O  O61  1  0.66082170  0.46639130  0.49203870  1
  O  O62  1  0.16082170  0.03360870  0.50796130  1
  O  O63  1  0.33917830  0.96639130  0.00796130  1
  O  O64  1  0.99203870  0.83917830  0.53360870  1
  O  O65  1  0.49203870  0.66082170  0.46639130  1
  O  O66  1  0.50796130  0.16082170  0.03360870  1
  O  O67  1  0.00796130  0.33917830  0.96639130  1
  O  O68  1  0.53360870  0.99203870  0.83917830  1
  O  O69  1  0.46639130  0.49203870  0.66082170  1
  O  O70  1  0.03360870  0.50796130  0.16082170  1
  O  O71  1  0.96639130  0.00796130  0.33917830  1
  O  O72  1  0.21057160  0.46088160  0.00000000  1
  O  O73  1  0.28942840  0.53911840  0.49748000  1
  O  O74  1  0.78942840  0.96088160  0.50252000  1
  O  O75  1  0.71057160  0.03911840  0.00252000  1
  O  O76  1  0.00000000  0.21057160  0.46088160  1
  O  O77  1  0.49748000  0.28942840  0.53911840  1
  O  O78  1  0.50252000  0.78942840  0.96088160  1
  O  O79  1  0.00252000  0.71057160  0.03911840  1
  O  O80  1  0.46088160  0.00000000  0.21057160  1
  O  O81  1  0.53911840  0.49748000  0.28942840  1
  O  O82  1  0.96088160  0.50252000  0.78942840  1
  O  O83  1  0.03911840  0.00252000  0.71057160  1
  O  O84  1  0.78942840  0.53911840  0.00252000  1
  O  O85  1  0.71057160  0.46088160  0.50252000  1
  O  O86  1  0.21057160  0.03911840  0.49748000  1
  O  O87  1  0.28942840  0.96088160  0.00000000  1
  O  O88  1  0.00252000  0.78942840  0.53911840  1
  O  O89  1  0.50252000  0.71057160  0.46088160  1
  O  O90  1  0.49748000  0.21057160  0.03911840  1
  O  O91  1  0.00000000  0.28942840  0.96088160  1
  O  O92  1  0.53911840  0.00252000  0.78942840  1
  O  O93  1  0.46088160  0.50252000  0.71057160  1
  O  O94  1  0.03911840  0.49748000  0.21057160  1
  O  O95  1  0.96088160  0.00000000  0.28942840  1
  O  O96  1  0.35430180  0.51679130  0.42187150  1
  O  O97  1  0.14569820  0.48320870  0.92187150  1
  O  O98  1  0.64569820  0.01679130  0.07812850  1
  O  O99  1  0.85430180  0.98320870  0.57812850  1
  O  O100  1  0.42187150  0.35430180  0.51679130  1
  O  O101  1  0.92187150  0.14569820  0.48320870  1
  O  O102  1  0.07812850  0.64569820  0.01679130  1
  O  O103  1  0.57812850  0.85430180  0.98320870  1
  O  O104  1  0.51679130  0.42187150  0.35430180  1
  O  O105  1  0.48320870  0.92187150  0.14569820  1
  O  O106  1  0.01679130  0.07812850  0.64569820  1
  O  O107  1  0.98320870  0.57812850  0.85430180  1
  O  O108  1  0.64569820  0.48320870  0.57812850  1
  O  O109  1  0.85430180  0.51679130  0.07812850  1
  O  O110  1  0.35430180  0.98320870  0.92187150  1
  O  O111  1  0.14569820  0.01679130  0.42187150  1
  O  O112  1  0.57812850  0.64569820  0.48320870  1
  O  O113  1  0.07812850  0.85430180  0.51679130  1
  O  O114  1  0.92187150  0.35430180  0.98320870  1
  O  O115  1  0.42187150  0.14569820  0.01679130  1
  O  O116  1  0.48320870  0.57812850  0.64569820  1
  O  O117  1  0.51679130  0.07812850  0.85430180  1
  O  O118  1  0.98320870  0.92187150  0.35430180  1
  O  O119  1  0.01679130  0.42187150  0.14569820  1
  O  O120  1  0.30662000  0.52891160  0.41272150  1
  O  O121  1  0.19338000  0.47108840  0.91272150  1
  O  O122  1  0.69338000  0.02891160  0.08727850  1
  O  O123  1  0.80662000  0.97108840  0.58727850  1
  O  O124  1  0.41272150  0.30662000  0.52891160  1
  O  O125  1  0.91272150  0.19338000  0.47108840  1
  O  O126  1  0.08727850  0.69338000  0.02891160  1
  O  O127  1  0.58727850  0.80662000  0.97108840  1
  O  O128  1  0.52891160  0.41272150  0.30662000  1
  O  O129  1  0.47108840  0.91272150  0.19338000  1
  O  O130  1  0.02891160  0.08727850  0.69338000  1
  O  O131  1  0.97108840  0.58727850  0.80662000  1
  O  O132  1  0.69338000  0.47108840  0.58727850  1
  O  O133  1  0.80662000  0.52891160  0.08727850  1
  O  O134  1  0.30662000  0.97108840  0.91272150  1
  O  O135  1  0.19338000  0.02891160  0.41272150  1
  O  O136  1  0.58727850  0.69338000  0.47108840  1
  O  O137  1  0.08727850  0.80662000  0.52891160  1
  O  O138  1  0.91272150  0.30662000  0.97108840  1
  O  O139  1  0.41272150  0.19338000  0.02891160  1
  O  O140  1  0.47108840  0.58727850  0.69338000  1
  O  O141  1  0.52891160  0.08727850  0.80662000  1
  O  O142  1  0.97108840  0.91272150  0.30662000  1
  O  O143  1  0.02891160  0.41272150  0.19338000  1
  O  O144  1  0.48105150  0.47319150  0.33723190  1
  O  O145  1  0.01894850  0.52680850  0.83723190  1
  O  O146  1  0.51894850  0.97319150  0.16276810  1
  O  O147  1  0.98105150  0.02680850  0.66276810  1
  O  O148  1  0.33723190  0.48105150  0.47319150  1
  O  O149  1  0.83723190  0.01894850  0.52680850  1
  O  O150  1  0.16276810  0.51894850  0.97319150  1
  O  O151  1  0.66276810  0.98105150  0.02680850  1
  O  O152  1  0.47319150  0.33723190  0.48105150  1
  O  O153  1  0.52680850  0.83723190  0.01894850  1
  O  O154  1  0.97319150  0.16276810  0.51894850  1
  O  O155  1  0.02680850  0.66276810  0.98105150  1
  O  O156  1  0.51894850  0.52680850  0.66276810  1
  O  O157  1  0.98105150  0.47319150  0.16276810  1
  O  O158  1  0.48105150  0.02680850  0.83723190  1
  O  O159  1  0.01894850  0.97319150  0.33723190  1
  O  O160  1  0.66276810  0.51894850  0.52680850  1
  O  O161  1  0.16276810  0.98105150  0.47319150  1
  O  O162  1  0.83723190  0.48105150  0.02680850  1
  O  O163  1  0.33723190  0.01894850  0.97319150  1
  O  O164  1  0.52680850  0.66276810  0.51894850  1
  O  O165  1  0.47319150  0.16276810  0.98105150  1
  O  O166  1  0.02680850  0.83723190  0.48105150  1
  O  O167  1  0.97319150  0.33723190  0.01894850  1
  O  O168  1  0.49237190  0.45854170  0.28846170  1
  O  O169  1  0.00762810  0.54145830  0.78846170  1
  O  O170  1  0.50762810  0.95854170  0.21153830  1
  O  O171  1  0.99237190  0.04145830  0.71153830  1
  O  O172  1  0.28846170  0.49237190  0.45854170  1
  O  O173  1  0.78846170  0.00762810  0.54145830  1
  O  O174  1  0.21153830  0.50762810  0.95854170  1
  O  O175  1  0.71153830  0.99237190  0.04145830  1
  O  O176  1  0.45854170  0.28846170  0.49237190  1
  O  O177  1  0.54145830  0.78846170  0.00762810  1
  O  O178  1  0.95854170  0.21153830  0.50762810  1
  O  O179  1  0.04145830  0.71153830  0.99237190  1
  O  O180  1  0.50762810  0.54145830  0.71153830  1
  O  O181  1  0.99237190  0.45854170  0.21153830  1
  O  O182  1  0.49237190  0.04145830  0.78846170  1
  O  O183  1  0.00762810  0.95854170  0.28846170  1
  O  O184  1  0.71153830  0.50762810  0.54145830  1
  O  O185  1  0.21153830  0.99237190  0.45854170  1
  O  O186  1  0.78846170  0.49237190  0.04145830  1
  O  O187  1  0.28846170  0.00762810  0.95854170  1
  O  O188  1  0.54145830  0.71153830  0.50762810  1
  O  O189  1  0.45854170  0.21153830  0.99237190  1
  O  O190  1  0.04145830  0.78846170  0.49237190  1
  O  O191  1  0.95854170  0.28846170  0.00762810  1
  O  O192  1  0.06840130  0.45954150  0.13942170  1
  O  O193  1  0.43159870  0.54045850  0.63942170  1
  O  O194  1  0.93159870  0.95954150  0.36057830  1
  O  O195  1  0.56840130  0.04045850  0.86057830  1
  O  O196  1  0.13942170  0.06840130  0.45954150  1
  O  O197  1  0.63942170  0.43159870  0.54045850  1
  O  O198  1  0.36057830  0.93159870  0.95954150  1
  O  O199  1  0.86057830  0.56840130  0.04045850  1
  O  O200  1  0.45954150  0.13942170  0.06840130  1
  O  O201  1  0.54045850  0.63942170  0.43159870  1
  O  O202  1  0.95954150  0.36057830  0.93159870  1
  O  O203  1  0.04045850  0.86057830  0.56840130  1
  O  O204  1  0.93159870  0.54045850  0.86057830  1
  O  O205  1  0.56840130  0.45954150  0.36057830  1
  O  O206  1  0.06840130  0.04045850  0.63942170  1
  O  O207  1  0.43159870  0.95954150  0.13942170  1
  O  O208  1  0.86057830  0.93159870  0.54045850  1
  O  O209  1  0.36057830  0.56840130  0.45954150  1
  O  O210  1  0.63942170  0.06840130  0.04045850  1
  O  O211  1  0.13942170  0.43159870  0.95954150  1
  O  O212  1  0.54045850  0.86057830  0.93159870  1
  O  O213  1  0.45954150  0.36057830  0.56840130  1
  O  O214  1  0.04045850  0.63942170  0.06840130  1
  O  O215  1  0.95954150  0.13942170  0.43159870  1
  O  O216  1  0.07650140  0.45400150  0.18832000  1
  O  O217  1  0.42349860  0.54599850  0.68832000  1
  O  O218  1  0.92349860  0.95400150  0.31168000  1
  O  O219  1  0.57650140  0.04599850  0.81168000  1
  O  O220  1  0.18832000  0.07650140  0.45400150  1
  O  O221  1  0.68832000  0.42349860  0.54599850  1
  O  O222  1  0.31168000  0.92349860  0.95400150  1
  O  O223  1  0.81168000  0.57650140  0.04599850  1
  O  O224  1  0.45400150  0.18832000  0.07650140  1
  O  O225  1  0.54599850  0.68832000  0.42349860  1
  O  O226  1  0.95400150  0.31168000  0.92349860  1
  O  O227  1  0.04599850  0.81168000  0.57650140  1
  O  O228  1  0.92349860  0.54599850  0.81168000  1
  O  O229  1  0.57650140  0.45400150  0.31168000  1
  O  O230  1  0.07650140  0.04599850  0.68832000  1
  O  O231  1  0.42349860  0.95400150  0.18832000  1
  O  O232  1  0.81168000  0.92349860  0.54599850  1
  O  O233  1  0.31168000  0.57650140  0.45400150  1
  O  O234  1  0.68832000  0.07650140  0.04599850  1
  O  O235  1  0.18832000  0.42349860  0.95400150  1
  O  O236  1  0.54599850  0.81168000  0.92349860  1
  O  O237  1  0.45400150  0.31168000  0.57650140  1
  O  O238  1  0.04599850  0.68832000  0.07650140  1
  O  O239  1  0.95400150  0.18832000  0.42349860  1
  N  N288  1  0.35602000  0.48813000  0.28934180  1
  N  N289  1  0.14398000  0.51187000  0.78934180  1
  N  N290  1  0.64398000  0.98813000  0.21065820  1
  N  N291  1  0.85602000  0.01187000  0.71065820  1
  N  N292  1  0.28934180  0.35602000  0.48813000  1
  N  N293  1  0.78934180  0.14398000  0.51187000  1
  N  N294  1  0.21065820  0.64398000  0.98813000  1
  N  N295  1  0.71065820  0.85602000  0.01187000  1
  N  N296  1  0.48813000  0.28934180  0.35602000  1
  N  N297  1  0.51187000  0.78934180  0.14398000  1
  N  N298  1  0.98813000  0.21065820  0.64398000  1
  N  N299  1  0.01187000  0.71065820  0.85602000  1
  N  N300  1  0.64398000  0.51187000  0.71065820  1
  N  N301  1  0.85602000  0.48813000  0.21065820  1
  N  N302  1  0.35602000  0.01187000  0.78934180  1
  N  N303  1  0.14398000  0.98813000  0.28934180  1
  N  N304  1  0.71065820  0.64398000  0.51187000  1
  N  N305  1  0.21065820  0.85602000  0.48813000  1
  N  N306  1  0.78934180  0.35602000  0.01187000  1
  N  N307  1  0.28934180  0.14398000  0.98813000  1
  N  N308  1  0.51187000  0.71065820  0.64398000  1
  N  N309  1  0.48813000  0.21065820  0.85602000  1
  N  N310  1  0.01187000  0.78934180  0.35602000  1
  N  N311  1  0.98813000  0.28934180  0.14398000  1
  N  N312  1  0.20511160  0.45092000  0.13790160  1
  N  N313  1  0.29488840  0.54908000  0.63790160  1
  N  N314  1  0.79488840  0.95092000  0.36209840  1
  N  N315  1  0.70511160  0.04908000  0.86209840  1
  N  N316  1  0.13790160  0.20511160  0.45092000  1
  N  N317  1  0.63790160  0.29488840  0.54908000  1
  N  N318  1  0.36209840  0.79488840  0.95092000  1
  N  N319  1  0.86209840  0.70511160  0.04908000  1
  N  N320  1  0.45092000  0.13790160  0.20511160  1
  N  N321  1  0.54908000  0.63790160  0.29488840  1
  N  N322  1  0.95092000  0.36209840  0.79488840  1
  N  N323  1  0.04908000  0.86209840  0.70511160  1
  N  N324  1  0.79488840  0.54908000  0.86209840  1
  N  N325  1  0.70511160  0.45092000  0.36209840  1
  N  N326  1  0.20511160  0.04908000  0.63790160  1
  N  N327  1  0.29488840  0.95092000  0.13790160  1
  N  N328  1  0.86209840  0.79488840  0.54908000  1
  N  N329  1  0.36209840  0.70511160  0.45092000  1
  N  N330  1  0.63790160  0.20511160  0.04908000  1
  N  N331  1  0.13790160  0.29488840  0.95092000  1
  N  N332  1  0.54908000  0.86209840  0.79488840  1
  N  N333  1  0.45092000  0.36209840  0.70511160  1
  N  N334  1  0.04908000  0.63790160  0.20511160  1
  N  N335  1  0.95092000  0.13790160  0.29488840  1
  C  C336  1  0.47543000  0.46642000  0.30763000  1
  C  C337  1  0.02457000  0.53358000  0.80763000  1
  C  C338  1  0.52457000  0.96642000  0.19237000  1
  C  C339  1  0.97543000  0.03358000  0.69237000  1
  C  C340  1  0.30763000  0.47543000  0.46642000  1
  C  C341  1  0.80763000  0.02457000  0.53358000  1
  C  C342  1  0.19237000  0.52457000  0.96642000  1
  C  C343  1  0.69237000  0.97543000  0.03358000  1
  C  C344  1  0.46642000  0.30763000  0.47543000  1
  C  C345  1  0.53358000  0.80763000  0.02457000  1
  C  C346  1  0.96642000  0.19237000  0.52457000  1
  C  C347  1  0.03358000  0.69237000  0.97543000  1
  C  C348  1  0.52457000  0.53358000  0.69237000  1
  C  C349  1  0.97543000  0.46642000  0.19237000  1
  C  C350  1  0.47543000  0.03358000  0.80763000  1
  C  C351  1  0.02457000  0.96642000  0.30763000  1
  C  C352  1  0.69237000  0.52457000  0.53358000  1
  C  C353  1  0.19237000  0.97543000  0.46642000  1
  C  C354  1  0.80763000  0.47543000  0.03358000  1
  C  C355  1  0.30763000  0.02457000  0.96642000  1
  C  C356  1  0.53358000  0.69237000  0.52457000  1
  C  C357  1  0.46642000  0.19237000  0.97543000  1
  C  C358  1  0.03358000  0.80763000  0.47543000  1
  C  C359  1  0.96642000  0.30763000  0.02457000  1
  C  C360  1  0.44382110  0.47211160  0.30279150  1
  C  C361  1  0.05617890  0.52788840  0.80279150  1
  C  C362  1  0.55617890  0.97211160  0.19720850  1
  C  C363  1  0.94382110  0.02788840  0.69720850  1
  C  C364  1  0.30279150  0.44382110  0.47211160  1
  C  C365  1  0.80279150  0.05617890  0.52788840  1
  C  C366  1  0.19720850  0.55617890  0.97211160  1
  C  C367  1  0.69720850  0.94382110  0.02788840  1
  C  C368  1  0.47211160  0.30279150  0.44382110  1
  C  C369  1  0.52788840  0.80279150  0.05617890  1
  C  C370  1  0.97211160  0.19720850  0.55617890  1
  C  C371  1  0.02788840  0.69720850  0.94382110  1
  C  C372  1  0.55617890  0.52788840  0.69720850  1
  C  C373  1  0.94382110  0.47211160  0.19720850  1
  C  C374  1  0.44382110  0.02788840  0.80279150  1
  C  C375  1  0.05617890  0.97211160  0.30279150  1
  C  C376  1  0.69720850  0.55617890  0.52788840  1
  C  C377  1  0.19720850  0.94382110  0.47211160  1
  C  C378  1  0.80279150  0.44382110  0.02788840  1
  C  C379  1  0.30279150  0.05617890  0.97211160  1
  C  C380  1  0.52788840  0.69720850  0.55617890  1
  C  C381  1  0.47211160  0.19720850  0.94382110  1
  C  C382  1  0.02788840  0.80279150  0.44382110  1
  C  C383  1  0.97211160  0.30279150  0.05617890  1
  C  C384  1  0.42509150  0.48309150  0.32399120  1
  C  C385  1  0.07490850  0.51690850  0.82399120  1
  C  C386  1  0.57490850  0.98309150  0.17600880  1
  C  C387  1  0.92509150  0.01690850  0.67600880  1
  C  C388  1  0.32399120  0.42509150  0.48309150  1
  C  C389  1  0.82399120  0.07490850  0.51690850  1
  C  C390  1  0.17600880  0.57490850  0.98309150  1
  C  C391  1  0.67600880  0.92509150  0.01690850  1
  C  C392  1  0.48309150  0.32399120  0.42509150  1
  C  C393  1  0.51690850  0.82399120  0.07490850  1
  C  C394  1  0.98309150  0.17600880  0.57490850  1
  C  C395  1  0.01690850  0.67600880  0.92509150  1
  C  C396  1  0.57490850  0.51690850  0.67600880  1
  C  C397  1  0.92509150  0.48309150  0.17600880  1
  C  C398  1  0.42509150  0.01690850  0.82399120  1
  C  C399  1  0.07490850  0.98309150  0.32399120  1
  C  C400  1  0.67600880  0.57490850  0.51690850  1
  C  C401  1  0.17600880  0.92509150  0.48309150  1
  C  C402  1  0.82399120  0.42509150  0.01690850  1
  C  C403  1  0.32399120  0.07490850  0.98309150  1
  C  C404  1  0.51690850  0.67600880  0.57490850  1
  C  C405  1  0.48309150  0.17600880  0.92509150  1
  C  C406  1  0.01690850  0.82399120  0.42509150  1
  C  C407  1  0.98309150  0.32399120  0.07490850  1
  H  H408  1  0.43235000  0.48770000  0.34287000  1
  H  H409  1  0.06765000  0.51230000  0.84287000  1
  H  H410  1  0.56765000  0.98770000  0.15713000  1
  H  H411  1  0.93235000  0.01230000  0.65713000  1
  H  H412  1  0.34287000  0.43235000  0.48770000  1
  H  H413  1  0.84287000  0.06765000  0.51230000  1
  H  H414  1  0.15713000  0.56765000  0.98770000  1
  H  H415  1  0.65713000  0.93235000  0.01230000  1
  H  H416  1  0.48770000  0.34287000  0.43235000  1
  H  H417  1  0.51230000  0.84287000  0.06765000  1
  H  H418  1  0.98770000  0.15713000  0.56765000  1
  H  H419  1  0.01230000  0.65713000  0.93235000  1
  H  H420  1  0.56765000  0.51230000  0.65713000  1
  H  H421  1  0.93235000  0.48770000  0.15713000  1
  H  H422  1  0.43235000  0.01230000  0.84287000  1
  H  H423  1  0.06765000  0.98770000  0.34287000  1
  H  H424  1  0.65713000  0.56765000  0.51230000  1
  H  H425  1  0.15713000  0.93235000  0.48770000  1
  H  H426  1  0.84287000  0.43235000  0.01230000  1
  H  H427  1  0.34287000  0.06765000  0.98770000  1
  H  H428  1  0.51230000  0.65713000  0.56765000  1
  H  H429  1  0.48770000  0.15713000  0.93235000  1
  H  H430  1  0.01230000  0.84287000  0.43235000  1
  H  H431  1  0.98770000  0.34287000  0.06765000  1
  C  C432  1  0.39573140  0.48732160  0.31758120  1
  C  C433  1  0.10426860  0.51267840  0.81758120  1
  C  C434  1  0.60426860  0.98732160  0.18241880  1
  C  C435  1  0.89573140  0.01267840  0.68241880  1
  C  C436  1  0.31758120  0.39573140  0.48732160  1
  C  C437  1  0.81758120  0.10426860  0.51267840  1
  C  C438  1  0.18241880  0.60426860  0.98732160  1
  C  C439  1  0.68241880  0.89573140  0.01267840  1
  C  C440  1  0.48732160  0.31758120  0.39573140  1
  C  C441  1  0.51267840  0.81758120  0.10426860  1
  C  C442  1  0.98732160  0.18241880  0.60426860  1
  C  C443  1  0.01267840  0.68241880  0.89573140  1
  C  C444  1  0.60426860  0.51267840  0.68241880  1
  C  C445  1  0.89573140  0.48732160  0.18241880  1
  C  C446  1  0.39573140  0.01267840  0.81758120  1
  C  C447  1  0.10426860  0.98732160  0.31758120  1
  C  C448  1  0.68241880  0.60426860  0.51267840  1
  C  C449  1  0.18241880  0.89573140  0.48732160  1
  C  C450  1  0.81758120  0.39573140  0.01267840  1
  C  C451  1  0.31758120  0.10426860  0.98732160  1
  C  C452  1  0.51267840  0.68241880  0.60426860  1
  C  C453  1  0.48732160  0.18241880  0.89573140  1
  C  C454  1  0.01267840  0.81758120  0.39573140  1
  C  C455  1  0.98732160  0.31758120  0.10426860  1
  C  C456  1  0.38510110  0.48058180  0.28997140  1
  C  C457  1  0.11489890  0.51941820  0.78997140  1
  C  C458  1  0.61489890  0.98058180  0.21002860  1
  C  C459  1  0.88510110  0.01941820  0.71002860  1
  C  C460  1  0.28997140  0.38510110  0.48058180  1
  C  C461  1  0.78997140  0.11489890  0.51941820  1
  C  C462  1  0.21002860  0.61489890  0.98058180  1
  C  C463  1  0.71002860  0.88510110  0.01941820  1
  C  C464  1  0.48058180  0.28997140  0.38510110  1
  C  C465  1  0.51941820  0.78997140  0.11489890  1
  C  C466  1  0.98058180  0.21002860  0.61489890  1
  C  C467  1  0.01941820  0.71002860  0.88510110  1
  C  C468  1  0.61489890  0.51941820  0.71002860  1
  C  C469  1  0.88510110  0.48058180  0.21002860  1
  C  C470  1  0.38510110  0.01941820  0.78997140  1
  C  C471  1  0.11489890  0.98058180  0.28997140  1
  C  C472  1  0.71002860  0.61489890  0.51941820  1
  C  C473  1  0.21002860  0.88510110  0.48058180  1
  C  C474  1  0.78997140  0.38510110  0.01941820  1
  C  C475  1  0.28997140  0.11489890  0.98058180  1
  C  C476  1  0.51941820  0.71002860  0.61489890  1
  C  C477  1  0.48058180  0.21002860  0.88510110  1
  C  C478  1  0.01941820  0.78997140  0.38510110  1
  C  C479  1  0.98058180  0.28997140  0.11489890  1
  C  C480  1  0.40383150  0.46961180  0.26876110  1
  C  C481  1  0.09616850  0.53038820  0.76876110  1
  C  C482  1  0.59616850  0.96961180  0.23123890  1
  C  C483  1  0.90383150  0.03038820  0.73123890  1
  C  C484  1  0.26876110  0.40383150  0.46961180  1
  C  C485  1  0.76876110  0.09616850  0.53038820  1
  C  C486  1  0.23123890  0.59616850  0.96961180  1
  C  C487  1  0.73123890  0.90383150  0.03038820  1
  C  C488  1  0.46961180  0.26876110  0.40383150  1
  C  C489  1  0.53038820  0.76876110  0.09616850  1
  C  C490  1  0.96961180  0.23123890  0.59616850  1
  C  C491  1  0.03038820  0.73123890  0.90383150  1
  C  C492  1  0.59616850  0.53038820  0.73123890  1
  C  C493  1  0.90383150  0.46961180  0.23123890  1
  C  C494  1  0.40383150  0.03038820  0.76876110  1
  C  C495  1  0.09616850  0.96961180  0.26876110  1
  C  C496  1  0.73123890  0.59616850  0.53038820  1
  C  C497  1  0.23123890  0.90383150  0.46961180  1
  C  C498  1  0.76876110  0.40383150  0.03038820  1
  C  C499  1  0.26876110  0.09616850  0.96961180  1
  C  C500  1  0.53038820  0.73123890  0.59616850  1
  C  C501  1  0.46961180  0.23123890  0.90383150  1
  C  C502  1  0.03038820  0.76876110  0.40383150  1
  C  C503  1  0.96961180  0.26876110  0.09616850  1
  H  H504  1  0.39656000  0.46500000  0.24989000  1
  H  H505  1  0.10344000  0.53500000  0.74989000  1
  H  H506  1  0.60344000  0.96500000  0.25011000  1
  H  H507  1  0.89656000  0.03500000  0.75011000  1
  H  H508  1  0.24989000  0.39656000  0.46500000  1
  H  H509  1  0.74989000  0.10344000  0.53500000  1
  H  H510  1  0.25011000  0.60344000  0.96500000  1
  H  H511  1  0.75011000  0.89656000  0.03500000  1
  H  H512  1  0.46500000  0.24989000  0.39656000  1
  H  H513  1  0.53500000  0.74989000  0.10344000  1
  H  H514  1  0.96500000  0.25011000  0.60344000  1
  H  H515  1  0.03500000  0.75011000  0.89656000  1
  H  H516  1  0.60344000  0.53500000  0.75011000  1
  H  H517  1  0.89656000  0.46500000  0.25011000  1
  H  H518  1  0.39656000  0.03500000  0.74989000  1
  H  H519  1  0.10344000  0.96500000  0.24989000  1
  H  H520  1  0.75011000  0.60344000  0.53500000  1
  H  H521  1  0.25011000  0.89656000  0.46500000  1
  H  H522  1  0.74989000  0.39656000  0.03500000  1
  H  H523  1  0.24989000  0.10344000  0.96500000  1
  H  H524  1  0.53500000  0.75011000  0.60344000  1
  H  H525  1  0.46500000  0.25011000  0.89656000  1
  H  H526  1  0.03500000  0.74989000  0.39656000  1
  H  H527  1  0.96500000  0.24989000  0.10344000  1
  C  C528  1  0.43319140  0.46537170  0.27517130  1
  C  C529  1  0.06680860  0.53462830  0.77517130  1
  C  C530  1  0.56680860  0.96537170  0.22482870  1
  C  C531  1  0.93319140  0.03462830  0.72482870  1
  C  C532  1  0.27517130  0.43319140  0.46537170  1
  C  C533  1  0.77517130  0.06680860  0.53462830  1
  C  C534  1  0.22482870  0.56680860  0.96537170  1
  C  C535  1  0.72482870  0.93319140  0.03462830  1
  C  C536  1  0.46537170  0.27517130  0.43319140  1
  C  C537  1  0.53462830  0.77517130  0.06680860  1
  C  C538  1  0.96537170  0.22482870  0.56680860  1
  C  C539  1  0.03462830  0.72482870  0.93319140  1
  C  C540  1  0.56680860  0.53462830  0.72482870  1
  C  C541  1  0.93319140  0.46537170  0.22482870  1
  C  C542  1  0.43319140  0.03462830  0.77517130  1
  C  C543  1  0.06680860  0.96537170  0.27517130  1
  C  C544  1  0.72482870  0.56680860  0.53462830  1
  C  C545  1  0.22482870  0.93319140  0.46537170  1
  C  C546  1  0.77517130  0.43319140  0.03462830  1
  C  C547  1  0.27517130  0.06680860  0.96537170  1
  C  C548  1  0.53462830  0.72482870  0.56680860  1
  C  C549  1  0.46537170  0.22482870  0.93319140  1
  C  C550  1  0.03462830  0.77517130  0.43319140  1
  C  C551  1  0.96537170  0.27517130  0.06680860  1
  H  H552  1  0.44599000  0.45787000  0.26067000  1
  H  H553  1  0.05401000  0.54213000  0.76067000  1
  H  H554  1  0.55401000  0.95787000  0.23933000  1
  H  H555  1  0.94599000  0.04213000  0.73933000  1
  H  H556  1  0.26067000  0.44599000  0.45787000  1
  H  H557  1  0.76067000  0.05401000  0.54213000  1
  H  H558  1  0.23933000  0.55401000  0.95787000  1
  H  H559  1  0.73933000  0.94599000  0.04213000  1
  H  H560  1  0.45787000  0.26067000  0.44599000  1
  H  H561  1  0.54213000  0.76067000  0.05401000  1
  H  H562  1  0.95787000  0.23933000  0.55401000  1
  H  H563  1  0.04213000  0.73933000  0.94599000  1
  H  H564  1  0.55401000  0.54213000  0.73933000  1
  H  H565  1  0.94599000  0.45787000  0.23933000  1
  H  H566  1  0.44599000  0.04213000  0.76067000  1
  H  H567  1  0.05401000  0.95787000  0.26067000  1
  H  H568  1  0.73933000  0.55401000  0.54213000  1
  H  H569  1  0.23933000  0.94599000  0.45787000  1
  H  H570  1  0.76067000  0.44599000  0.04213000  1
  H  H571  1  0.26067000  0.05401000  0.95787000  1
  H  H572  1  0.54213000  0.73933000  0.55401000  1
  H  H573  1  0.45787000  0.23933000  0.94599000  1
  H  H574  1  0.04213000  0.76067000  0.44599000  1
  H  H575  1  0.95787000  0.26067000  0.05401000  1
  C  C576  1  0.33778160  0.51297160  0.37323120  1
  C  C577  1  0.16221840  0.48702840  0.87323120  1
  C  C578  1  0.66221840  0.01297160  0.12676880  1
  C  C579  1  0.83778160  0.98702840  0.62676880  1
  C  C580  1  0.37323120  0.33778160  0.51297160  1
  C  C581  1  0.87323120  0.16221840  0.48702840  1
  C  C582  1  0.12676880  0.66221840  0.01297160  1
  C  C583  1  0.62676880  0.83778160  0.98702840  1
  C  C584  1  0.51297160  0.37323120  0.33778160  1
  C  C585  1  0.48702840  0.87323120  0.16221840  1
  C  C586  1  0.01297160  0.12676880  0.66221840  1
  C  C587  1  0.98702840  0.62676880  0.83778160  1
  C  C588  1  0.66221840  0.48702840  0.62676880  1
  C  C589  1  0.83778160  0.51297160  0.12676880  1
  C  C590  1  0.33778160  0.98702840  0.87323120  1
  C  C591  1  0.16221840  0.01297160  0.37323120  1
  C  C592  1  0.62676880  0.66221840  0.48702840  1
  C  C593  1  0.12676880  0.83778160  0.51297160  1
  C  C594  1  0.87323120  0.33778160  0.98702840  1
  C  C595  1  0.37323120  0.16221840  0.01297160  1
  C  C596  1  0.48702840  0.62676880  0.66221840  1
  C  C597  1  0.51297160  0.12676880  0.83778160  1
  C  C598  1  0.98702840  0.87323120  0.33778160  1
  C  C599  1  0.01297160  0.37323120  0.16221840  1
  C  C600  1  0.36546130  0.50435150  0.36425130  1
  C  C601  1  0.13453870  0.49564850  0.86425130  1
  C  C602  1  0.63453870  0.00435150  0.13574870  1
  C  C603  1  0.86546130  0.00000000  0.63574870  1
  C  C604  1  0.36425130  0.36546130  0.50435150  1
  C  C605  1  0.86425130  0.13453870  0.49564850  1
  C  C606  1  0.13574870  0.63453870  0.00435150  1
  C  C607  1  0.63574870  0.86546130  0.00000000  1
  C  C608  1  0.50435150  0.36425130  0.36546130  1
  C  C609  1  0.49564850  0.86425130  0.13453870  1
  C  C610  1  0.00435150  0.13574870  0.63453870  1
  C  C611  1  0.00000000  0.63574870  0.86546130  1
  C  C612  1  0.63453870  0.49564850  0.63574870  1
  C  C613  1  0.86546130  0.50435150  0.13574870  1
  C  C614  1  0.36546130  0.00000000  0.86425130  1
  C  C615  1  0.13453870  0.00435150  0.36425130  1
  C  C616  1  0.63574870  0.63453870  0.49564850  1
  C  C617  1  0.13574870  0.86546130  0.50435150  1
  C  C618  1  0.86425130  0.36546130  0.00000000  1
  C  C619  1  0.36425130  0.13453870  0.00435150  1
  C  C620  1  0.49564850  0.63574870  0.63453870  1
  C  C621  1  0.50435150  0.13574870  0.86546130  1
  C  C622  1  0.00000000  0.86425130  0.36546130  1
  C  C623  1  0.00435150  0.36425130  0.13453870  1
  H  H624  1  0.38103000  0.50357000  0.37794000  1
  H  H625  1  0.11897000  0.49643000  0.87794000  1
  H  H626  1  0.61897000  0.00357000  0.12206000  1
  H  H627  1  0.88103000  0.00000000  0.62206000  1
  H  H628  1  0.37794000  0.38103000  0.50357000  1
  H  H629  1  0.87794000  0.11897000  0.49643000  1
  H  H630  1  0.12206000  0.61897000  0.00357000  1
  H  H631  1  0.62206000  0.88103000  0.00000000  1
  H  H632  1  0.50357000  0.37794000  0.38103000  1
  H  H633  1  0.49643000  0.87794000  0.11897000  1
  H  H634  1  0.00357000  0.12206000  0.61897000  1
  H  H635  1  0.00000000  0.62206000  0.88103000  1
  H  H636  1  0.61897000  0.49643000  0.62206000  1
  H  H637  1  0.88103000  0.50357000  0.12206000  1
  H  H638  1  0.38103000  0.00000000  0.87794000  1
  H  H639  1  0.11897000  0.00357000  0.37794000  1
  H  H640  1  0.62206000  0.61897000  0.49643000  1
  H  H641  1  0.12206000  0.88103000  0.50357000  1
  H  H642  1  0.87794000  0.38103000  0.00000000  1
  H  H643  1  0.37794000  0.11897000  0.00357000  1
  H  H644  1  0.49643000  0.62206000  0.61897000  1
  H  H645  1  0.50357000  0.12206000  0.88103000  1
  H  H646  1  0.00000000  0.87794000  0.38103000  1
  H  H647  1  0.00357000  0.37794000  0.11897000  1
  C  C648  1  0.37036120  0.49688160  0.33525140  1
  C  C649  1  0.12963880  0.50311840  0.83525140  1
  C  C650  1  0.62963880  0.00000000  0.16474860  1
  C  C651  1  0.87036120  0.00311840  0.66474860  1
  C  C652  1  0.33525140  0.37036120  0.49688160  1
  C  C653  1  0.83525140  0.12963880  0.50311840  1
  C  C654  1  0.16474860  0.62963880  0.00000000  1
  C  C655  1  0.66474860  0.87036120  0.00311840  1
  C  C656  1  0.49688160  0.33525140  0.37036120  1
  C  C657  1  0.50311840  0.83525140  0.12963880  1
  C  C658  1  0.00000000  0.16474860  0.62963880  1
  C  C659  1  0.00311840  0.66474860  0.87036120  1
  C  C660  1  0.62963880  0.50311840  0.66474860  1
  C  C661  1  0.87036120  0.49688160  0.16474860  1
  C  C662  1  0.37036120  0.00311840  0.83525140  1
  C  C663  1  0.12963880  0.00000000  0.33525140  1
  C  C664  1  0.66474860  0.62963880  0.50311840  1
  C  C665  1  0.16474860  0.87036120  0.49688160  1
  C  C666  1  0.83525140  0.37036120  0.00311840  1
  C  C667  1  0.33525140  0.12963880  0.00000000  1
  C  C668  1  0.50311840  0.66474860  0.62963880  1
  C  C669  1  0.49688160  0.16474860  0.87036120  1
  C  C670  1  0.00311840  0.83525140  0.37036120  1
  C  C671  1  0.00000000  0.33525140  0.12963880  1
  C  C672  1  0.34758150  0.49802180  0.31523110  1
  C  C673  1  0.15241850  0.50197820  0.81523110  1
  C  C674  1  0.65241850  0.00000000  0.18476890  1
  C  C675  1  0.84758150  0.00197820  0.68476890  1
  C  C676  1  0.31523110  0.34758150  0.49802180  1
  C  C677  1  0.81523110  0.15241850  0.50197820  1
  C  C678  1  0.18476890  0.65241850  0.00000000  1
  C  C679  1  0.68476890  0.84758150  0.00197820  1
  C  C680  1  0.49802180  0.31523110  0.34758150  1
  C  C681  1  0.50197820  0.81523110  0.15241850  1
  C  C682  1  0.00000000  0.18476890  0.65241850  1
  C  C683  1  0.00197820  0.68476890  0.84758150  1
  C  C684  1  0.65241850  0.50197820  0.68476890  1
  C  C685  1  0.84758150  0.49802180  0.18476890  1
  C  C686  1  0.34758150  0.00197820  0.81523110  1
  C  C687  1  0.15241850  0.00000000  0.31523110  1
  C  C688  1  0.68476890  0.65241850  0.50197820  1
  C  C689  1  0.18476890  0.84758150  0.49802180  1
  C  C690  1  0.81523110  0.34758150  0.00197820  1
  C  C691  1  0.31523110  0.15241850  0.00000000  1
  C  C692  1  0.50197820  0.68476890  0.65241850  1
  C  C693  1  0.49802180  0.18476890  0.84758150  1
  C  C694  1  0.00197820  0.81523110  0.34758150  1
  C  C695  1  0.00000000  0.31523110  0.15241850  1
  C  C696  1  0.31990130  0.50664190  0.32421150  1
  C  C697  1  0.18009870  0.49335810  0.82421150  1
  C  C698  1  0.68009870  0.00664190  0.17578850  1
  C  C699  1  0.81990130  0.99335810  0.67578850  1
  C  C700  1  0.32421150  0.31990130  0.50664190  1
  C  C701  1  0.82421150  0.18009870  0.49335810  1
  C  C702  1  0.17578850  0.68009870  0.00664190  1
  C  C703  1  0.67578850  0.81990130  0.99335810  1
  C  C704  1  0.50664190  0.32421150  0.31990130  1
  C  C705  1  0.49335810  0.82421150  0.18009870  1
  C  C706  1  0.00664190  0.17578850  0.68009870  1
  C  C707  1  0.99335810  0.67578850  0.81990130  1
  C  C708  1  0.68009870  0.49335810  0.67578850  1
  C  C709  1  0.81990130  0.50664190  0.17578850  1
  C  C710  1  0.31990130  0.99335810  0.82421150  1
  C  C711  1  0.18009870  0.00664190  0.32421150  1
  C  C712  1  0.67578850  0.68009870  0.49335810  1
  C  C713  1  0.17578850  0.81990130  0.50664190  1
  C  C714  1  0.82421150  0.31990130  0.99335810  1
  C  C715  1  0.32421150  0.18009870  0.00664190  1
  C  C716  1  0.49335810  0.67578850  0.68009870  1
  C  C717  1  0.50664190  0.17578850  0.81990130  1
  C  C718  1  0.99335810  0.82421150  0.31990130  1
  C  C719  1  0.00664190  0.32421150  0.18009870  1
  H  H720  1  0.30434000  0.50742000  0.31052000  1
  H  H721  1  0.19566000  0.49258000  0.81052000  1
  H  H722  1  0.69566000  0.00742000  0.18948000  1
  H  H723  1  0.80434000  0.99258000  0.68948000  1
  H  H724  1  0.31052000  0.30434000  0.50742000  1
  H  H725  1  0.81052000  0.19566000  0.49258000  1
  H  H726  1  0.18948000  0.69566000  0.00742000  1
  H  H727  1  0.68948000  0.80434000  0.99258000  1
  H  H728  1  0.50742000  0.31052000  0.30434000  1
  H  H729  1  0.49258000  0.81052000  0.19566000  1
  H  H730  1  0.00742000  0.18948000  0.69566000  1
  H  H731  1  0.99258000  0.68948000  0.80434000  1
  H  H732  1  0.69566000  0.49258000  0.68948000  1
  H  H733  1  0.80434000  0.50742000  0.18948000  1
  H  H734  1  0.30434000  0.99258000  0.81052000  1
  H  H735  1  0.19566000  0.00742000  0.31052000  1
  H  H736  1  0.68948000  0.69566000  0.49258000  1
  H  H737  1  0.18948000  0.80434000  0.50742000  1
  H  H738  1  0.81052000  0.30434000  0.99258000  1
  H  H739  1  0.31052000  0.19566000  0.00742000  1
  H  H740  1  0.49258000  0.68948000  0.69566000  1
  H  H741  1  0.50742000  0.18948000  0.80434000  1
  H  H742  1  0.99258000  0.81052000  0.30434000  1
  H  H743  1  0.00742000  0.31052000  0.19566000  1
  C  C744  1  0.31500120  0.51412180  0.35321160  1
  C  C745  1  0.18499880  0.48587820  0.85321160  1
  C  C746  1  0.68499880  0.01412180  0.14678840  1
  C  C747  1  0.81500120  0.98587820  0.64678840  1
  C  C748  1  0.35321160  0.31500120  0.51412180  1
  C  C749  1  0.85321160  0.18499880  0.48587820  1
  C  C750  1  0.14678840  0.68499880  0.01412180  1
  C  C751  1  0.64678840  0.81500120  0.98587820  1
  C  C752  1  0.51412180  0.35321160  0.31500120  1
  C  C753  1  0.48587820  0.85321160  0.18499880  1
  C  C754  1  0.01412180  0.14678840  0.68499880  1
  C  C755  1  0.98587820  0.64678840  0.81500120  1
  C  C756  1  0.68499880  0.48587820  0.64678840  1
  C  C757  1  0.81500120  0.51412180  0.14678840  1
  C  C758  1  0.31500120  0.98587820  0.85321160  1
  C  C759  1  0.18499880  0.01412180  0.35321160  1
  C  C760  1  0.64678840  0.68499880  0.48587820  1
  C  C761  1  0.14678840  0.81500120  0.51412180  1
  C  C762  1  0.85321160  0.31500120  0.98587820  1
  C  C763  1  0.35321160  0.18499880  0.01412180  1
  C  C764  1  0.48587820  0.64678840  0.68499880  1
  C  C765  1  0.51412180  0.14678840  0.81500120  1
  C  C766  1  0.98587820  0.85321160  0.31500120  1
  C  C767  1  0.01412180  0.35321160  0.18499880  1
  H  H768  1  0.29608000  0.52000000  0.35935000  1
  H  H769  1  0.20392000  0.48000000  0.85935000  1
  H  H770  1  0.70392000  0.02000000  0.14065000  1
  H  H771  1  0.79608000  0.98000000  0.64065000  1
  H  H772  1  0.35935000  0.29608000  0.52000000  1
  H  H773  1  0.85935000  0.20392000  0.48000000  1
  H  H774  1  0.14065000  0.70392000  0.02000000  1
  H  H775  1  0.64065000  0.79608000  0.98000000  1
  H  H776  1  0.52000000  0.35935000  0.29608000  1
  H  H777  1  0.48000000  0.85935000  0.20392000  1
  H  H778  1  0.02000000  0.14065000  0.70392000  1
  H  H779  1  0.98000000  0.64065000  0.79608000  1
  H  H780  1  0.70392000  0.48000000  0.64065000  1
  H  H781  1  0.79608000  0.52000000  0.14065000  1
  H  H782  1  0.29608000  0.98000000  0.85935000  1
  H  H783  1  0.20392000  0.02000000  0.35935000  1
  H  H784  1  0.64065000  0.70392000  0.48000000  1
  H  H785  1  0.14065000  0.79608000  0.52000000  1
  H  H786  1  0.85935000  0.29608000  0.98000000  1
  H  H787  1  0.35935000  0.20392000  0.02000000  1
  H  H788  1  0.48000000  0.64065000  0.70392000  1
  H  H789  1  0.52000000  0.14065000  0.79608000  1
  H  H790  1  0.98000000  0.85935000  0.29608000  1
  H  H791  1  0.02000000  0.35935000  0.20392000  1
  C  C792  1  0.11739100  0.45456170  0.15728150  1
  C  C793  1  0.38260900  0.54543830  0.65728150  1
  C  C794  1  0.88260900  0.95456170  0.34271850  1
  C  C795  1  0.61739100  0.04543830  0.84271850  1
  C  C796  1  0.15728150  0.11739100  0.45456170  1
  C  C797  1  0.65728150  0.38260900  0.54543830  1
  C  C798  1  0.34271850  0.88260900  0.95456170  1
  C  C799  1  0.84271850  0.61739100  0.04543830  1
  C  C800  1  0.45456170  0.15728150  0.11739100  1
  C  C801  1  0.54543830  0.65728150  0.38260900  1
  C  C802  1  0.95456170  0.34271850  0.88260900  1
  C  C803  1  0.04543830  0.84271850  0.61739100  1
  C  C804  1  0.88260900  0.54543830  0.84271850  1
  C  C805  1  0.61739100  0.45456170  0.34271850  1
  C  C806  1  0.11739100  0.04543830  0.65728150  1
  C  C807  1  0.38260900  0.95456170  0.15728150  1
  C  C808  1  0.84271850  0.88260900  0.54543830  1
  C  C809  1  0.34271850  0.61739100  0.45456170  1
  C  C810  1  0.65728150  0.11739100  0.04543830  1
  C  C811  1  0.15728150  0.38260900  0.95456170  1
  C  C812  1  0.54543830  0.84271850  0.88260900  1
  C  C813  1  0.45456170  0.34271850  0.61739100  1
  C  C814  1  0.04543830  0.65728150  0.11739100  1
  C  C815  1  0.95456170  0.15728150  0.38260900  1
  C  C816  1  0.12760120  0.45556160  0.12871130  1
  C  C817  1  0.37239880  0.54443840  0.62871130  1
  C  C818  1  0.87239880  0.95556160  0.37128870  1
  C  C819  1  0.62760120  0.04443840  0.87128870  1
  C  C820  1  0.12871130  0.12760120  0.45556160  1
  C  C821  1  0.62871130  0.37239880  0.54443840  1
  C  C822  1  0.37128870  0.87239880  0.95556160  1
  C  C823  1  0.87128870  0.62760120  0.04443840  1
  C  C824  1  0.45556160  0.12871130  0.12760120  1
  C  C825  1  0.54443840  0.62871130  0.37239880  1
  C  C826  1  0.95556160  0.37128870  0.87239880  1
  C  C827  1  0.04443840  0.87128870  0.62760120  1
  C  C828  1  0.87239880  0.54443840  0.87128870  1
  C  C829  1  0.62760120  0.45556160  0.37128870  1
  C  C830  1  0.12760120  0.04443840  0.62871130  1
  C  C831  1  0.37239880  0.95556160  0.12871130  1
  C  C832  1  0.87128870  0.87239880  0.54443840  1
  C  C833  1  0.37128870  0.62760120  0.45556160  1
  C  C834  1  0.62871130  0.12760120  0.04443840  1
  C  C835  1  0.12871130  0.37239880  0.95556160  1
  C  C836  1  0.54443840  0.87128870  0.87239880  1
  C  C837  1  0.45556160  0.37128870  0.62760120  1
  C  C838  1  0.04443840  0.62871130  0.12760120  1
  C  C839  1  0.95556160  0.12871130  0.37239880  1
  H  H840  1  0.11418000  0.45688000  0.11295000  1
  H  H841  1  0.38582000  0.54312000  0.61295000  1
  H  H842  1  0.88582000  0.95688000  0.38705000  1
  H  H843  1  0.61418000  0.04312000  0.88705000  1
  H  H844  1  0.11295000  0.11418000  0.45688000  1
  H  H845  1  0.61295000  0.38582000  0.54312000  1
  H  H846  1  0.38705000  0.88582000  0.95688000  1
  H  H847  1  0.88705000  0.61418000  0.04312000  1
  H  H848  1  0.45688000  0.11295000  0.11418000  1
  H  H849  1  0.54312000  0.61295000  0.38582000  1
  H  H850  1  0.95688000  0.38705000  0.88582000  1
  H  H851  1  0.04312000  0.88705000  0.61418000  1
  H  H852  1  0.88582000  0.54312000  0.88705000  1
  H  H853  1  0.61418000  0.45688000  0.38705000  1
  H  H854  1  0.11418000  0.04312000  0.61295000  1
  H  H855  1  0.38582000  0.95688000  0.11295000  1
  H  H856  1  0.88705000  0.88582000  0.54312000  1
  H  H857  1  0.38705000  0.61418000  0.45688000  1
  H  H858  1  0.61295000  0.11418000  0.04312000  1
  H  H859  1  0.11295000  0.38582000  0.95688000  1
  H  H860  1  0.54312000  0.88705000  0.88582000  1
  H  H861  1  0.45688000  0.38705000  0.61418000  1
  H  H862  1  0.04312000  0.61295000  0.11418000  1
  H  H863  1  0.95688000  0.11295000  0.38582000  1
  C  C864  1  0.15743130  0.45462180  0.12321110  1
  C  C865  1  0.34256870  0.54537820  0.62321110  1
  C  C866  1  0.84256870  0.95462180  0.37678890  1
  C  C867  1  0.65743130  0.04537820  0.87678890  1
  C  C868  1  0.12321110  0.15743130  0.45462180  1
  C  C869  1  0.62321110  0.34256870  0.54537820  1
  C  C870  1  0.37678890  0.84256870  0.95462180  1
  C  C871  1  0.87678890  0.65743130  0.04537820  1
  C  C872  1  0.45462180  0.12321110  0.15743130  1
  C  C873  1  0.54537820  0.62321110  0.34256870  1
  C  C874  1  0.95462180  0.37678890  0.84256870  1
  C  C875  1  0.04537820  0.87678890  0.65743130  1
  C  C876  1  0.84256870  0.54537820  0.87678890  1
  C  C877  1  0.65743130  0.45462180  0.37678890  1
  C  C878  1  0.15743130  0.04537820  0.62321110  1
  C  C879  1  0.34256870  0.95462180  0.12321110  1
  C  C880  1  0.87678890  0.84256870  0.54537820  1
  C  C881  1  0.37678890  0.65743130  0.45462180  1
  C  C882  1  0.62321110  0.15743130  0.04537820  1
  C  C883  1  0.12321110  0.34256870  0.95462180  1
  C  C884  1  0.54537820  0.87678890  0.84256870  1
  C  C885  1  0.45462180  0.37678890  0.65743130  1
  C  C886  1  0.04537820  0.62321110  0.15743130  1
  C  C887  1  0.95462180  0.12321110  0.34256870  1
  C  C888  1  0.17706100  0.45269190  0.14628150  1
  C  C889  1  0.32293900  0.54730810  0.64628150  1
  C  C890  1  0.82293900  0.95269190  0.35371850  1
  C  C891  1  0.67706100  0.04730810  0.85371850  1
  C  C892  1  0.14628150  0.17706100  0.45269190  1
  C  C893  1  0.64628150  0.32293900  0.54730810  1
  C  C894  1  0.35371850  0.82293900  0.95269190  1
  C  C895  1  0.85371850  0.67706100  0.04730810  1
  C  C896  1  0.45269190  0.14628150  0.17706100  1
  C  C897  1  0.54730810  0.64628150  0.32293900  1
  C  C898  1  0.95269190  0.35371850  0.82293900  1
  C  C899  1  0.04730810  0.85371850  0.67706100  1
  C  C900  1  0.82293900  0.54730810  0.85371850  1
  C  C901  1  0.67706100  0.45269190  0.35371850  1
  C  C902  1  0.17706100  0.04730810  0.64628150  1
  C  C903  1  0.32293900  0.95269190  0.14628150  1
  C  C904  1  0.85371850  0.82293900  0.54730810  1
  C  C905  1  0.35371850  0.67706100  0.45269190  1
  C  C906  1  0.64628150  0.17706100  0.04730810  1
  C  C907  1  0.14628150  0.32293900  0.95269190  1
  C  C908  1  0.54730810  0.85371850  0.82293900  1
  C  C909  1  0.45269190  0.35371850  0.67706100  1
  C  C910  1  0.04730810  0.64628150  0.17706100  1
  C  C911  1  0.95269190  0.14628150  0.32293900  1
  C  C912  1  0.16685130  0.45170190  0.17484130  1
  C  C913  1  0.33314870  0.54829810  0.67484130  1
  C  C914  1  0.83314870  0.95170190  0.32515870  1
  C  C915  1  0.66685130  0.04829810  0.82515870  1
  C  C916  1  0.17484130  0.16685130  0.45170190  1
  C  C917  1  0.67484130  0.33314870  0.54829810  1
  C  C918  1  0.32515870  0.83314870  0.95170190  1
  C  C919  1  0.82515870  0.66685130  0.04829810  1
  C  C920  1  0.45170190  0.17484130  0.16685130  1
  C  C921  1  0.54829810  0.67484130  0.33314870  1
  C  C922  1  0.95170190  0.32515870  0.83314870  1
  C  C923  1  0.04829810  0.82515870  0.66685130  1
  C  C924  1  0.83314870  0.54829810  0.82515870  1
  C  C925  1  0.66685130  0.45170190  0.32515870  1
  C  C926  1  0.16685130  0.04829810  0.67484130  1
  C  C927  1  0.33314870  0.95170190  0.17484130  1
  C  C928  1  0.82515870  0.83314870  0.54829810  1
  C  C929  1  0.32515870  0.66685130  0.45170190  1
  C  C930  1  0.67484130  0.16685130  0.04829810  1
  C  C931  1  0.17484130  0.33314870  0.95170190  1
  C  C932  1  0.54829810  0.82515870  0.83314870  1
  C  C933  1  0.45170190  0.32515870  0.66685130  1
  C  C934  1  0.04829810  0.67484130  0.16685130  1
  C  C935  1  0.95170190  0.17484130  0.33314870  1
  H  H936  1  0.18027000  0.45038000  0.19061000  1
  H  H937  1  0.31973000  0.54962000  0.69061000  1
  H  H938  1  0.81973000  0.95038000  0.30939000  1
  H  H939  1  0.68027000  0.04962000  0.80939000  1
  H  H940  1  0.19061000  0.18027000  0.45038000  1
  H  H941  1  0.69061000  0.31973000  0.54962000  1
  H  H942  1  0.30939000  0.81973000  0.95038000  1
  H  H943  1  0.80939000  0.68027000  0.04962000  1
  H  H944  1  0.45038000  0.19061000  0.18027000  1
  H  H945  1  0.54962000  0.69061000  0.31973000  1
  H  H946  1  0.95038000  0.30939000  0.81973000  1
  H  H947  1  0.04962000  0.80939000  0.68027000  1
  H  H948  1  0.81973000  0.54962000  0.80939000  1
  H  H949  1  0.68027000  0.45038000  0.30939000  1
  H  H950  1  0.18027000  0.04962000  0.69061000  1
  H  H951  1  0.31973000  0.95038000  0.19061000  1
  H  H952  1  0.80939000  0.81973000  0.54962000  1
  H  H953  1  0.30939000  0.68027000  0.45038000  1
  H  H954  1  0.69061000  0.18027000  0.04962000  1
  H  H955  1  0.19061000  0.31973000  0.95038000  1
  H  H956  1  0.54962000  0.80939000  0.81973000  1
  H  H957  1  0.45038000  0.30939000  0.68027000  1
  H  H958  1  0.04962000  0.69061000  0.18027000  1
  H  H959  1  0.95038000  0.19061000  0.31973000  1
  C  C960  1  0.13702140  0.45263180  0.18034120  1
  C  C961  1  0.36297860  0.54736820  0.68034120  1
  C  C962  1  0.86297860  0.95263180  0.31965880  1
  C  C963  1  0.63702140  0.04736820  0.81965880  1
  C  C964  1  0.18034120  0.13702140  0.45263180  1
  C  C965  1  0.68034120  0.36297860  0.54736820  1
  C  C966  1  0.31965880  0.86297860  0.95263180  1
  C  C967  1  0.81965880  0.63702140  0.04736820  1
  C  C968  1  0.45263180  0.18034120  0.13702140  1
  C  C969  1  0.54736820  0.68034120  0.36297860  1
  C  C970  1  0.95263180  0.31965880  0.86297860  1
  C  C971  1  0.04736820  0.81965880  0.63702140  1
  C  C972  1  0.86297860  0.54736820  0.81965880  1
  C  C973  1  0.63702140  0.45263180  0.31965880  1
  C  C974  1  0.13702140  0.04736820  0.68034120  1
  C  C975  1  0.36297860  0.95263180  0.18034120  1
  C  C976  1  0.81965880  0.86297860  0.54736820  1
  C  C977  1  0.31965880  0.63702140  0.45263180  1
  C  C978  1  0.68034120  0.13702140  0.04736820  1
  C  C979  1  0.18034120  0.36297860  0.95263180  1
  C  C980  1  0.54736820  0.81965880  0.86297860  1
  C  C981  1  0.45263180  0.31965880  0.63702140  1
  C  C982  1  0.04736820  0.68034120  0.13702140  1
  C  C983  1  0.95263180  0.18034120  0.36297860  1
  H  H984  1  0.13005000  0.45195000  0.19987000  1
  H  H985  1  0.36995000  0.54805000  0.69987000  1
  H  H986  1  0.86995000  0.95195000  0.30013000  1
  H  H987  1  0.63005000  0.04805000  0.80013000  1
  H  H988  1  0.19987000  0.13005000  0.45195000  1
  H  H989  1  0.69987000  0.36995000  0.54805000  1
  H  H990  1  0.30013000  0.86995000  0.95195000  1
  H  H991  1  0.80013000  0.63005000  0.04805000  1
  H  H992  1  0.45195000  0.19987000  0.13005000  1
  H  H993  1  0.54805000  0.69987000  0.36995000  1
  H  H994  1  0.95195000  0.30013000  0.86995000  1
  H  H995  1  0.04805000  0.80013000  0.63005000  1
  H  H996  1  0.86995000  0.54805000  0.80013000  1
  H  H997  1  0.63005000  0.45195000  0.30013000  1
  H  H998  1  0.13005000  0.04805000  0.69987000  1
  H  H999  1  0.36995000  0.95195000  0.19987000  1
  H  H1000  1  0.80013000  0.86995000  0.54805000  1
  H  H1001  1  0.30013000  0.63005000  0.45195000  1
  H  H1002  1  0.69987000  0.13005000  0.04805000  1
  H  H1003  1  0.19987000  0.36995000  0.95195000  1
  H  H1004  1  0.54805000  0.80013000  0.86995000  1
  H  H1005  1  0.45195000  0.30013000  0.63005000  1
  H  H1006  1  0.04805000  0.69987000  0.13005000  1
  H  H1007  1  0.95195000  0.19987000  0.36995000  1
  C  C1008  1  0.18853000  0.46422000  0.01663000  1
  C  C1009  1  0.31147000  0.53578000  0.51663000  1
  C  C1010  1  0.81147000  0.96422000  0.48337000  1
  C  C1011  1  0.68853000  0.03578000  0.98337000  1
  C  C1012  1  0.01663000  0.18853000  0.46422000  1
  C  C1013  1  0.51663000  0.31147000  0.53578000  1
  C  C1014  1  0.48337000  0.81147000  0.96422000  1
  C  C1015  1  0.98337000  0.68853000  0.03578000  1
  C  C1016  1  0.46422000  0.01663000  0.18853000  1
  C  C1017  1  0.53578000  0.51663000  0.31147000  1
  C  C1018  1  0.96422000  0.48337000  0.81147000  1
  C  C1019  1  0.03578000  0.98337000  0.68853000  1
  C  C1020  1  0.81147000  0.53578000  0.98337000  1
  C  C1021  1  0.68853000  0.46422000  0.48337000  1
  C  C1022  1  0.18853000  0.03578000  0.51663000  1
  C  C1023  1  0.31147000  0.96422000  0.01663000  1
  C  C1024  1  0.98337000  0.81147000  0.53578000  1
  C  C1025  1  0.48337000  0.68853000  0.46422000  1
  C  C1026  1  0.51663000  0.18853000  0.03578000  1
  C  C1027  1  0.01663000  0.31147000  0.96422000  1
  C  C1028  1  0.53578000  0.98337000  0.81147000  1
  C  C1029  1  0.46422000  0.48337000  0.68853000  1
  C  C1030  1  0.03578000  0.51663000  0.18853000  1
  C  C1031  1  0.96422000  0.01663000  0.31147000  1
  C  C1032  1  0.19335130  0.46086170  0.04831100  1
  C  C1033  1  0.30664870  0.53913830  0.54831100  1
  C  C1034  1  0.80664870  0.96086170  0.45168900  1
  C  C1035  1  0.69335130  0.03913830  0.95168900  1
  C  C1036  1  0.04831100  0.19335130  0.46086170  1
  C  C1037  1  0.54831100  0.30664870  0.53913830  1
  C  C1038  1  0.45168900  0.80664870  0.96086170  1
  C  C1039  1  0.95168900  0.69335130  0.03913830  1
  C  C1040  1  0.46086170  0.04831100  0.19335130  1
  C  C1041  1  0.53913830  0.54831100  0.30664870  1
  C  C1042  1  0.96086170  0.45168900  0.80664870  1
  C  C1043  1  0.03913830  0.95168900  0.69335130  1
  C  C1044  1  0.80664870  0.53913830  0.95168900  1
  C  C1045  1  0.69335130  0.46086170  0.45168900  1
  C  C1046  1  0.19335130  0.03913830  0.54831100  1
  C  C1047  1  0.30664870  0.96086170  0.04831100  1
  C  C1048  1  0.95168900  0.80664870  0.53913830  1
  C  C1049  1  0.45168900  0.69335130  0.46086170  1
  C  C1050  1  0.54831100  0.19335130  0.03913830  1
  C  C1051  1  0.04831100  0.30664870  0.96086170  1
  C  C1052  1  0.53913830  0.95168900  0.80664870  1
  C  C1053  1  0.46086170  0.45168900  0.69335130  1
  C  C1054  1  0.03913830  0.54831100  0.19335130  1
  C  C1055  1  0.96086170  0.04831100  0.30664870  1
  C  C1056  1  0.22197110  0.45985180  0.05836130  1
  C  C1057  1  0.27802890  0.54014820  0.55836130  1
  C  C1058  1  0.77802890  0.95985180  0.44163870  1
  C  C1059  1  0.72197110  0.04014820  0.94163870  1
  C  C1060  1  0.05836130  0.22197110  0.45985180  1
  C  C1061  1  0.55836130  0.27802890  0.54014820  1
  C  C1062  1  0.44163870  0.77802890  0.95985180  1
  C  C1063  1  0.94163870  0.72197110  0.04014820  1
  C  C1064  1  0.45985180  0.05836130  0.22197110  1
  C  C1065  1  0.54014820  0.55836130  0.27802890  1
  C  C1066  1  0.95985180  0.44163870  0.77802890  1
  C  C1067  1  0.04014820  0.94163870  0.72197110  1
  C  C1068  1  0.77802890  0.54014820  0.94163870  1
  C  C1069  1  0.72197110  0.45985180  0.44163870  1
  C  C1070  1  0.22197110  0.04014820  0.55836130  1
  C  C1071  1  0.27802890  0.95985180  0.05836130  1
  C  C1072  1  0.94163870  0.77802890  0.54014820  1
  C  C1073  1  0.44163870  0.72197110  0.45985180  1
  C  C1074  1  0.55836130  0.22197110  0.04014820  1
  C  C1075  1  0.05836130  0.27802890  0.95985180  1
  C  C1076  1  0.54014820  0.94163870  0.77802890  1
  C  C1077  1  0.45985180  0.44163870  0.72197110  1
  C  C1078  1  0.04014820  0.55836130  0.22197110  1
  C  C1079  1  0.95985180  0.05836130  0.27802890  1
  H  H1080  1  0.23773000  0.46056000  0.04489000  1
  H  H1081  1  0.26227000  0.53944000  0.54489000  1
  H  H1082  1  0.76227000  0.96056000  0.45511000  1
  H  H1083  1  0.73773000  0.03944000  0.95511000  1
  H  H1084  1  0.04489000  0.23773000  0.46056000  1
  H  H1085  1  0.54489000  0.26227000  0.53944000  1
  H  H1086  1  0.45511000  0.76227000  0.96056000  1
  H  H1087  1  0.95511000  0.73773000  0.03944000  1
  H  H1088  1  0.46056000  0.04489000  0.23773000  1
  H  H1089  1  0.53944000  0.54489000  0.26227000  1
  H  H1090  1  0.96056000  0.45511000  0.76227000  1
  H  H1091  1  0.03944000  0.95511000  0.73773000  1
  H  H1092  1  0.76227000  0.53944000  0.95511000  1
  H  H1093  1  0.73773000  0.46056000  0.45511000  1
  H  H1094  1  0.23773000  0.03944000  0.54489000  1
  H  H1095  1  0.26227000  0.96056000  0.04489000  1
  H  H1096  1  0.95511000  0.76227000  0.53944000  1
  H  H1097  1  0.45511000  0.73773000  0.46056000  1
  H  H1098  1  0.54489000  0.23773000  0.03944000  1
  H  H1099  1  0.04489000  0.26227000  0.96056000  1
  H  H1100  1  0.53944000  0.95511000  0.76227000  1
  H  H1101  1  0.46056000  0.45511000  0.73773000  1
  H  H1102  1  0.03944000  0.54489000  0.23773000  1
  H  H1103  1  0.96056000  0.04489000  0.26227000  1
  C  C1104  1  0.22753100  0.45780190  0.08813140  1
  C  C1105  1  0.27246900  0.54219810  0.58813140  1
  C  C1106  1  0.77246900  0.95780190  0.41186860  1
  C  C1107  1  0.72753100  0.04219810  0.91186860  1
  C  C1108  1  0.08813140  0.22753100  0.45780190  1
  C  C1109  1  0.58813140  0.27246900  0.54219810  1
  C  C1110  1  0.41186860  0.77246900  0.95780190  1
  C  C1111  1  0.91186860  0.72753100  0.04219810  1
  C  C1112  1  0.45780190  0.08813140  0.22753100  1
  C  C1113  1  0.54219810  0.58813140  0.27246900  1
  C  C1114  1  0.95780190  0.41186860  0.77246900  1
  C  C1115  1  0.04219810  0.91186860  0.72753100  1
  C  C1116  1  0.77246900  0.54219810  0.91186860  1
  C  C1117  1  0.72753100  0.45780190  0.41186860  1
  C  C1118  1  0.22753100  0.04219810  0.58813140  1
  C  C1119  1  0.27246900  0.95780190  0.08813140  1
  C  C1120  1  0.91186860  0.77246900  0.54219810  1
  C  C1121  1  0.41186860  0.72753100  0.45780190  1
  C  C1122  1  0.58813140  0.22753100  0.04219810  1
  C  C1123  1  0.08813140  0.27246900  0.95780190  1
  C  C1124  1  0.54219810  0.91186860  0.77246900  1
  C  C1125  1  0.45780190  0.41186860  0.72753100  1
  C  C1126  1  0.04219810  0.58813140  0.22753100  1
  C  C1127  1  0.95780190  0.08813140  0.27246900  1
  H  H1128  1  0.24709000  0.45710000  0.09500000  1
  H  H1129  1  0.25291000  0.54290000  0.59500000  1
  H  H1130  1  0.75291000  0.95710000  0.40500000  1
  H  H1131  1  0.74709000  0.04290000  0.90500000  1
  H  H1132  1  0.09500000  0.24709000  0.45710000  1
  H  H1133  1  0.59500000  0.25291000  0.54290000  1
  H  H1134  1  0.40500000  0.75291000  0.95710000  1
  H  H1135  1  0.90500000  0.74709000  0.04290000  1
  H  H1136  1  0.45710000  0.09500000  0.24709000  1
  H  H1137  1  0.54290000  0.59500000  0.25291000  1
  H  H1138  1  0.95710000  0.40500000  0.75291000  1
  H  H1139  1  0.04290000  0.90500000  0.74709000  1
  H  H1140  1  0.75291000  0.54290000  0.90500000  1
  H  H1141  1  0.74709000  0.45710000  0.40500000  1
  H  H1142  1  0.24709000  0.04290000  0.59500000  1
  H  H1143  1  0.25291000  0.95710000  0.09500000  1
  H  H1144  1  0.90500000  0.75291000  0.54290000  1
  H  H1145  1  0.40500000  0.74709000  0.45710000  1
  H  H1146  1  0.59500000  0.24709000  0.04290000  1
  H  H1147  1  0.09500000  0.25291000  0.95710000  1
  H  H1148  1  0.54290000  0.90500000  0.75291000  1
  H  H1149  1  0.45710000  0.40500000  0.74709000  1
  H  H1150  1  0.04290000  0.59500000  0.24709000  1
  H  H1151  1  0.95710000  0.09500000  0.25291000  1
  C  C1152  1  0.20448130  0.45682000  0.10784100  1
  C  C1153  1  0.29551870  0.54318000  0.60784100  1
  C  C1154  1  0.79551870  0.95682000  0.39215900  1
  C  C1155  1  0.70448130  0.04318000  0.89215900  1
  C  C1156  1  0.10784100  0.20448130  0.45682000  1
  C  C1157  1  0.60784100  0.29551870  0.54318000  1
  C  C1158  1  0.39215900  0.79551870  0.95682000  1
  C  C1159  1  0.89215900  0.70448130  0.04318000  1
  C  C1160  1  0.45682000  0.10784100  0.20448130  1
  C  C1161  1  0.54318000  0.60784100  0.29551870  1
  C  C1162  1  0.95682000  0.39215900  0.79551870  1
  C  C1163  1  0.04318000  0.89215900  0.70448130  1
  C  C1164  1  0.79551870  0.54318000  0.89215900  1
  C  C1165  1  0.70448130  0.45682000  0.39215900  1
  C  C1166  1  0.20448130  0.04318000  0.60784100  1
  C  C1167  1  0.29551870  0.95682000  0.10784100  1
  C  C1168  1  0.89215900  0.79551870  0.54318000  1
  C  C1169  1  0.39215900  0.70448130  0.45682000  1
  C  C1170  1  0.60784100  0.20448130  0.04318000  1
  C  C1171  1  0.10784100  0.29551870  0.95682000  1
  C  C1172  1  0.54318000  0.89215900  0.79551870  1
  C  C1173  1  0.45682000  0.39215900  0.70448130  1
  C  C1174  1  0.04318000  0.60784100  0.20448130  1
  C  C1175  1  0.95682000  0.10784100  0.29551870  1
  C  C1176  1  0.17586110  0.45776180  0.09779120  1
  C  C1177  1  0.32413890  0.54223820  0.59779120  1
  C  C1178  1  0.82413890  0.95776180  0.40220880  1
  C  C1179  1  0.67586110  0.04223820  0.90220880  1
  C  C1180  1  0.09779120  0.17586110  0.45776180  1
  C  C1181  1  0.59779120  0.32413890  0.54223820  1
  C  C1182  1  0.40220880  0.82413890  0.95776180  1
  C  C1183  1  0.90220880  0.67586110  0.04223820  1
  C  C1184  1  0.45776180  0.09779120  0.17586110  1
  C  C1185  1  0.54223820  0.59779120  0.32413890  1
  C  C1186  1  0.95776180  0.40220880  0.82413890  1
  C  C1187  1  0.04223820  0.90220880  0.67586110  1
  C  C1188  1  0.82413890  0.54223820  0.90220880  1
  C  C1189  1  0.67586110  0.45776180  0.40220880  1
  C  C1190  1  0.17586110  0.04223820  0.59779120  1
  C  C1191  1  0.32413890  0.95776180  0.09779120  1
  C  C1192  1  0.90220880  0.82413890  0.54223820  1
  C  C1193  1  0.40220880  0.67586110  0.45776180  1
  C  C1194  1  0.59779120  0.17586110  0.04223820  1
  C  C1195  1  0.09779120  0.32413890  0.95776180  1
  C  C1196  1  0.54223820  0.90220880  0.82413890  1
  C  C1197  1  0.45776180  0.40220880  0.67586110  1
  C  C1198  1  0.04223820  0.59779120  0.17586110  1
  C  C1199  1  0.95776180  0.09779120  0.32413890  1
  C  C1200  1  0.17031000  0.45982160  0.06802130  1
  C  C1201  1  0.32969000  0.54017840  0.56802130  1
  C  C1202  1  0.82969000  0.95982160  0.43197870  1
  C  C1203  1  0.67031000  0.04017840  0.93197870  1
  C  C1204  1  0.06802130  0.17031000  0.45982160  1
  C  C1205  1  0.56802130  0.32969000  0.54017840  1
  C  C1206  1  0.43197870  0.82969000  0.95982160  1
  C  C1207  1  0.93197870  0.67031000  0.04017840  1
  C  C1208  1  0.45982160  0.06802130  0.17031000  1
  C  C1209  1  0.54017840  0.56802130  0.32969000  1
  C  C1210  1  0.95982160  0.43197870  0.82969000  1
  C  C1211  1  0.04017840  0.93197870  0.67031000  1
  C  C1212  1  0.82969000  0.54017840  0.93197870  1
  C  C1213  1  0.67031000  0.45982160  0.43197870  1
  C  C1214  1  0.17031000  0.04017840  0.56802130  1
  C  C1215  1  0.32969000  0.95982160  0.06802130  1
  C  C1216  1  0.93197870  0.82969000  0.54017840  1
  C  C1217  1  0.43197870  0.67031000  0.45982160  1
  C  C1218  1  0.56802130  0.17031000  0.04017840  1
  C  C1219  1  0.06802130  0.32969000  0.95982160  1
  C  C1220  1  0.54017840  0.93197870  0.82969000  1
  C  C1221  1  0.45982160  0.43197870  0.67031000  1
  C  C1222  1  0.04017840  0.56802130  0.17031000  1
  C  C1223  1  0.95982160  0.06802130  0.32969000  1
  H  H1224  1  0.15074000  0.46051000  0.06115000  1
  H  H1225  1  0.34926000  0.53949000  0.56115000  1
  H  H1226  1  0.84926000  0.96051000  0.43885000  1
  H  H1227  1  0.65074000  0.03949000  0.93885000  1
  H  H1228  1  0.06115000  0.15074000  0.46051000  1
  H  H1229  1  0.56115000  0.34926000  0.53949000  1
  H  H1230  1  0.43885000  0.84926000  0.96051000  1
  H  H1231  1  0.93885000  0.65074000  0.03949000  1
  H  H1232  1  0.46051000  0.06115000  0.15074000  1
  H  H1233  1  0.53949000  0.56115000  0.34926000  1
  H  H1234  1  0.96051000  0.43885000  0.84926000  1
  H  H1235  1  0.03949000  0.93885000  0.65074000  1
  H  H1236  1  0.84926000  0.53949000  0.93885000  1
  H  H1237  1  0.65074000  0.46051000  0.43885000  1
  H  H1238  1  0.15074000  0.03949000  0.56115000  1
  H  H1239  1  0.34926000  0.96051000  0.06115000  1
  H  H1240  1  0.93885000  0.84926000  0.53949000  1
  H  H1241  1  0.43885000  0.65074000  0.46051000  1
  H  H1242  1  0.56115000  0.15074000  0.03949000  1
  H  H1243  1  0.06115000  0.34926000  0.96051000  1
  H  H1244  1  0.53949000  0.93885000  0.84926000  1
  H  H1245  1  0.46051000  0.43885000  0.65074000  1
  H  H1246  1  0.03949000  0.56115000  0.15074000  1
  H  H1247  1  0.96051000  0.06115000  0.34926000  1
  C  C1248  1  0.33033000  0.52032000  0.40573000  1
  C  C1249  1  0.16967000  0.47968000  0.90573000  1
  C  C1250  1  0.66967000  0.02032000  0.09427000  1
  C  C1251  1  0.83033000  0.97968000  0.59427000  1
  C  C1252  1  0.40573000  0.33033000  0.52032000  1
  C  C1253  1  0.90573000  0.16967000  0.47968000  1
  C  C1254  1  0.09427000  0.66967000  0.02032000  1
  C  C1255  1  0.59427000  0.83033000  0.97968000  1
  C  C1256  1  0.52032000  0.40573000  0.33033000  1
  C  C1257  1  0.47968000  0.90573000  0.16967000  1
  C  C1258  1  0.02032000  0.09427000  0.66967000  1
  C  C1259  1  0.97968000  0.59427000  0.83033000  1
  C  C1260  1  0.66967000  0.47968000  0.59427000  1
  C  C1261  1  0.83033000  0.52032000  0.09427000  1
  C  C1262  1  0.33033000  0.97968000  0.90573000  1
  C  C1263  1  0.16967000  0.02032000  0.40573000  1
  C  C1264  1  0.59427000  0.66967000  0.47968000  1
  C  C1265  1  0.09427000  0.83033000  0.52032000  1
  C  C1266  1  0.90573000  0.33033000  0.97968000  1
  C  C1267  1  0.40573000  0.16967000  0.02032000  1
  C  C1268  1  0.47968000  0.59427000  0.66967000  1
  C  C1269  1  0.52032000  0.09427000  0.83033000  1
  C  C1270  1  0.97968000  0.90573000  0.33033000  1
  C  C1271  1  0.02032000  0.40573000  0.16967000  1
  C  C1272  1  0.08473000  0.45612000  0.16073000  1
  C  C1273  1  0.41527000  0.54388000  0.66073000  1
  C  C1274  1  0.91527000  0.95612000  0.33927000  1
  C  C1275  1  0.58473000  0.04388000  0.83927000  1
  C  C1276  1  0.16073000  0.08473000  0.45612000  1
  C  C1277  1  0.66073000  0.41527000  0.54388000  1
  C  C1278  1  0.33927000  0.91527000  0.95612000  1
  C  C1279  1  0.83927000  0.58473000  0.04388000  1
  C  C1280  1  0.45612000  0.16073000  0.08473000  1
  C  C1281  1  0.54388000  0.66073000  0.41527000  1
  C  C1282  1  0.95612000  0.33927000  0.91527000  1
  C  C1283  1  0.04388000  0.83927000  0.58473000  1
  C  C1284  1  0.91527000  0.54388000  0.83927000  1
  C  C1285  1  0.58473000  0.45612000  0.33927000  1
  C  C1286  1  0.08473000  0.04388000  0.66073000  1
  C  C1287  1  0.41527000  0.95612000  0.16073000  1
  C  C1288  1  0.83927000  0.91527000  0.54388000  1
  C  C1289  1  0.33927000  0.58473000  0.45612000  1
  C  C1290  1  0.66073000  0.08473000  0.04388000  1
  C  C1291  1  0.16073000  0.41527000  0.95612000  1
  C  C1292  1  0.54388000  0.83927000  0.91527000  1
  C  C1293  1  0.45612000  0.33927000  0.58473000  1
  C  C1294  1  0.04388000  0.66073000  0.08473000  1
  C  C1295  1  0.95612000  0.16073000  0.41527000  1
  C  C1296  1  0.27479170  0.46382000  0.19617170  1
  C  C1297  1  0.22520830  0.53618000  0.69617170  1
  C  C1298  1  0.72520830  0.96382000  0.30382830  1
  C  C1299  1  0.77479170  0.03618000  0.80382830  1
  C  C1300  1  0.19617170  0.27479170  0.46382000  1
  C  C1301  1  0.69617170  0.22520830  0.53618000  1
  C  C1302  1  0.30382830  0.72520830  0.96382000  1
  C  C1303  1  0.80382830  0.77479170  0.03618000  1
  C  C1304  1  0.46382000  0.19617170  0.27479170  1
  C  C1305  1  0.53618000  0.69617170  0.22520830  1
  C  C1306  1  0.96382000  0.30382830  0.72520830  1
  C  C1307  1  0.03618000  0.80382830  0.77479170  1
  C  C1308  1  0.72520830  0.53618000  0.80382830  1
  C  C1309  1  0.77479170  0.46382000  0.30382830  1
  C  C1310  1  0.27479170  0.03618000  0.69617170  1
  C  C1311  1  0.22520830  0.96382000  0.19617170  1
  C  C1312  1  0.80382830  0.72520830  0.53618000  1
  C  C1313  1  0.30382830  0.77479170  0.46382000  1
  C  C1314  1  0.69617170  0.27479170  0.03618000  1
  C  C1315  1  0.19617170  0.22520830  0.96382000  1
  C  C1316  1  0.53618000  0.80382830  0.72520830  1
  C  C1317  1  0.46382000  0.30382830  0.77479170  1
  C  C1318  1  0.03618000  0.69617170  0.27479170  1
  C  C1319  1  0.96382000  0.19617170  0.22520830  1
  C  C1320  1  0.26862000  0.48562000  0.17602000  1
  C  C1321  1  0.23138000  0.51438000  0.67602000  1
  C  C1322  1  0.73138000  0.98562000  0.32398000  1
  C  C1323  1  0.76862000  0.01438000  0.82398000  1
  C  C1324  1  0.17602000  0.26862000  0.48562000  1
  C  C1325  1  0.67602000  0.23138000  0.51438000  1
  C  C1326  1  0.32398000  0.73138000  0.98562000  1
  C  C1327  1  0.82398000  0.76862000  0.01438000  1
  C  C1328  1  0.48562000  0.17602000  0.26862000  1
  C  C1329  1  0.51438000  0.67602000  0.23138000  1
  C  C1330  1  0.98562000  0.32398000  0.73138000  1
  C  C1331  1  0.01438000  0.82398000  0.76862000  1
  C  C1332  1  0.73138000  0.51438000  0.82398000  1
  C  C1333  1  0.76862000  0.48562000  0.32398000  1
  C  C1334  1  0.26862000  0.01438000  0.67602000  1
  C  C1335  1  0.23138000  0.98562000  0.17602000  1
  C  C1336  1  0.82398000  0.73138000  0.51438000  1
  C  C1337  1  0.32398000  0.76862000  0.48562000  1
  C  C1338  1  0.67602000  0.26862000  0.01438000  1
  C  C1339  1  0.17602000  0.23138000  0.98562000  1
  C  C1340  1  0.51438000  0.82398000  0.73138000  1
  C  C1341  1  0.48562000  0.32398000  0.76862000  1
  C  C1342  1  0.01438000  0.67602000  0.26862000  1
  C  C1343  1  0.98562000  0.17602000  0.23138000  1
  H  H1344  1  0.27960000  0.50320000  0.17607000  1
  H  H1345  1  0.22040000  0.49680000  0.67607000  1
  H  H1346  1  0.72040000  0.00320000  0.32393000  1
  H  H1347  1  0.77960000  0.00000000  0.82393000  1
  H  H1348  1  0.17607000  0.27960000  0.50320000  1
  H  H1349  1  0.67607000  0.22040000  0.49680000  1
  H  H1350  1  0.32393000  0.72040000  0.00320000  1
  H  H1351  1  0.82393000  0.77960000  0.00000000  1
  H  H1352  1  0.50320000  0.17607000  0.27960000  1
  H  H1353  1  0.49680000  0.67607000  0.22040000  1
  H  H1354  1  0.00320000  0.32393000  0.72040000  1
  H  H1355  1  0.00000000  0.82393000  0.77960000  1
  H  H1356  1  0.72040000  0.49680000  0.82393000  1
  H  H1357  1  0.77960000  0.50320000  0.32393000  1
  H  H1358  1  0.27960000  0.00000000  0.67607000  1
  H  H1359  1  0.22040000  0.00320000  0.17607000  1
  H  H1360  1  0.82393000  0.72040000  0.49680000  1
  H  H1361  1  0.32393000  0.77960000  0.50320000  1
  H  H1362  1  0.67607000  0.27960000  0.00000000  1
  H  H1363  1  0.17607000  0.22040000  0.00320000  1
  H  H1364  1  0.49680000  0.82393000  0.72040000  1
  H  H1365  1  0.50320000  0.32393000  0.77960000  1
  H  H1366  1  0.00000000  0.67607000  0.27960000  1
  H  H1367  1  0.00320000  0.17607000  0.22040000  1
  C  C1368  1  0.24652000  0.48162000  0.15563180  1
  C  C1369  1  0.25348000  0.51838000  0.65563180  1
  C  C1370  1  0.75348000  0.98162000  0.34436820  1
  C  C1371  1  0.74652000  0.01838000  0.84436820  1
  C  C1372  1  0.15563180  0.24652000  0.48162000  1
  C  C1373  1  0.65563180  0.25348000  0.51838000  1
  C  C1374  1  0.34436820  0.75348000  0.98162000  1
  C  C1375  1  0.84436820  0.74652000  0.01838000  1
  C  C1376  1  0.48162000  0.15563180  0.24652000  1
  C  C1377  1  0.51838000  0.65563180  0.25348000  1
  C  C1378  1  0.98162000  0.34436820  0.75348000  1
  C  C1379  1  0.01838000  0.84436820  0.74652000  1
  C  C1380  1  0.75348000  0.51838000  0.84436820  1
  C  C1381  1  0.74652000  0.48162000  0.34436820  1
  C  C1382  1  0.24652000  0.01838000  0.65563180  1
  C  C1383  1  0.25348000  0.98162000  0.15563180  1
  C  C1384  1  0.84436820  0.75348000  0.51838000  1
  C  C1385  1  0.34436820  0.74652000  0.48162000  1
  C  C1386  1  0.65563180  0.24652000  0.01838000  1
  C  C1387  1  0.15563180  0.25348000  0.98162000  1
  C  C1388  1  0.51838000  0.84436820  0.75348000  1
  C  C1389  1  0.48162000  0.34436820  0.74652000  1
  C  C1390  1  0.01838000  0.65563180  0.24652000  1
  C  C1391  1  0.98162000  0.15563180  0.25348000  1
  H  H1392  1  0.24227000  0.49652000  0.14183000  1
  H  H1393  1  0.25773000  0.50348000  0.64183000  1
  H  H1394  1  0.75773000  0.00000000  0.35817000  1
  H  H1395  1  0.74227000  0.00348000  0.85817000  1
  H  H1396  1  0.14183000  0.24227000  0.49652000  1
  H  H1397  1  0.64183000  0.25773000  0.50348000  1
  H  H1398  1  0.35817000  0.75773000  0.00000000  1
  H  H1399  1  0.85817000  0.74227000  0.00348000  1
  H  H1400  1  0.49652000  0.14183000  0.24227000  1
  H  H1401  1  0.50348000  0.64183000  0.25773000  1
  H  H1402  1  0.00000000  0.35817000  0.75773000  1
  H  H1403  1  0.00348000  0.85817000  0.74227000  1
  H  H1404  1  0.75773000  0.50348000  0.85817000  1
  H  H1405  1  0.74227000  0.49652000  0.35817000  1
  H  H1406  1  0.24227000  0.00348000  0.64183000  1
  H  H1407  1  0.25773000  0.00000000  0.14183000  1
  H  H1408  1  0.85817000  0.75773000  0.50348000  1
  H  H1409  1  0.35817000  0.74227000  0.49652000  1
  H  H1410  1  0.64183000  0.24227000  0.00348000  1
  H  H1411  1  0.14183000  0.25773000  0.00000000  1
  H  H1412  1  0.50348000  0.85817000  0.75773000  1
  H  H1413  1  0.49652000  0.35817000  0.74227000  1
  H  H1414  1  0.00348000  0.64183000  0.24227000  1
  H  H1415  1  0.00000000  0.14183000  0.25773000  1
  C  C1416  1  0.23045160  0.45582000  0.15549160  1
  C  C1417  1  0.26954840  0.54418000  0.65549160  1
  C  C1418  1  0.76954840  0.95582000  0.34450840  1
  C  C1419  1  0.73045160  0.04418000  0.84450840  1
  C  C1420  1  0.15549160  0.23045160  0.45582000  1
  C  C1421  1  0.65549160  0.26954840  0.54418000  1
  C  C1422  1  0.34450840  0.76954840  0.95582000  1
  C  C1423  1  0.84450840  0.73045160  0.04418000  1
  C  C1424  1  0.45582000  0.15549160  0.23045160  1
  C  C1425  1  0.54418000  0.65549160  0.26954840  1
  C  C1426  1  0.95582000  0.34450840  0.76954840  1
  C  C1427  1  0.04418000  0.84450840  0.73045160  1
  C  C1428  1  0.76954840  0.54418000  0.84450840  1
  C  C1429  1  0.73045160  0.45582000  0.34450840  1
  C  C1430  1  0.23045160  0.04418000  0.65549160  1
  C  C1431  1  0.26954840  0.95582000  0.15549160  1
  C  C1432  1  0.84450840  0.76954840  0.54418000  1
  C  C1433  1  0.34450840  0.73045160  0.45582000  1
  C  C1434  1  0.65549160  0.23045160  0.04418000  1
  C  C1435  1  0.15549160  0.26954840  0.95582000  1
  C  C1436  1  0.54418000  0.84450840  0.76954840  1
  C  C1437  1  0.45582000  0.34450840  0.73045160  1
  C  C1438  1  0.04418000  0.65549160  0.23045160  1
  C  C1439  1  0.95582000  0.15549160  0.26954840  1
  C  C1440  1  0.23659180  0.43402000  0.17572000  1
  C  C1441  1  0.26340820  0.56598000  0.67572000  1
  C  C1442  1  0.76340820  0.93402000  0.32428000  1
  C  C1443  1  0.73659180  0.06598000  0.82428000  1
  C  C1444  1  0.17572000  0.23659180  0.43402000  1
  C  C1445  1  0.67572000  0.26340820  0.56598000  1
  C  C1446  1  0.32428000  0.76340820  0.93402000  1
  C  C1447  1  0.82428000  0.73659180  0.06598000  1
  C  C1448  1  0.43402000  0.17572000  0.23659180  1
  C  C1449  1  0.56598000  0.67572000  0.26340820  1
  C  C1450  1  0.93402000  0.32428000  0.76340820  1
  C  C1451  1  0.06598000  0.82428000  0.73659180  1
  C  C1452  1  0.76340820  0.56598000  0.82428000  1
  C  C1453  1  0.73659180  0.43402000  0.32428000  1
  C  C1454  1  0.23659180  0.06598000  0.67572000  1
  C  C1455  1  0.26340820  0.93402000  0.17572000  1
  C  C1456  1  0.82428000  0.76340820  0.56598000  1
  C  C1457  1  0.32428000  0.73659180  0.43402000  1
  C  C1458  1  0.67572000  0.23659180  0.06598000  1
  C  C1459  1  0.17572000  0.26340820  0.93402000  1
  C  C1460  1  0.56598000  0.82428000  0.76340820  1
  C  C1461  1  0.43402000  0.32428000  0.73659180  1
  C  C1462  1  0.06598000  0.67572000  0.23659180  1
  C  C1463  1  0.93402000  0.17572000  0.26340820  1
  H  H1464  1  0.22564000  0.41643000  0.17558000  1
  H  H1465  1  0.27436000  0.58357000  0.67558000  1
  H  H1466  1  0.77436000  0.91643000  0.32442000  1
  H  H1467  1  0.72564000  0.08357000  0.82442000  1
  H  H1468  1  0.17558000  0.22564000  0.41643000  1
  H  H1469  1  0.67558000  0.27436000  0.58357000  1
  H  H1470  1  0.32442000  0.77436000  0.91643000  1
  H  H1471  1  0.82442000  0.72564000  0.08357000  1
  H  H1472  1  0.41643000  0.17558000  0.22564000  1
  H  H1473  1  0.58357000  0.67558000  0.27436000  1
  H  H1474  1  0.91643000  0.32442000  0.77436000  1
  H  H1475  1  0.08357000  0.82442000  0.72564000  1
  H  H1476  1  0.77436000  0.58357000  0.82442000  1
  H  H1477  1  0.72564000  0.41643000  0.32442000  1
  H  H1478  1  0.22564000  0.08357000  0.67558000  1
  H  H1479  1  0.27436000  0.91643000  0.17558000  1
  H  H1480  1  0.82442000  0.77436000  0.58357000  1
  H  H1481  1  0.32442000  0.72564000  0.41643000  1
  H  H1482  1  0.67558000  0.22564000  0.08357000  1
  H  H1483  1  0.17558000  0.27436000  0.91643000  1
  H  H1484  1  0.58357000  0.82442000  0.77436000  1
  H  H1485  1  0.41643000  0.32442000  0.72564000  1
  H  H1486  1  0.08357000  0.67558000  0.22564000  1
  H  H1487  1  0.91643000  0.17558000  0.27436000  1
  C  C1488  1  0.25876190  0.43802000  0.19602170  1
  C  C1489  1  0.24123810  0.56198000  0.69602170  1
  C  C1490  1  0.74123810  0.93802000  0.30397830  1
  C  C1491  1  0.75876190  0.06198000  0.80397830  1
  C  C1492  1  0.19602170  0.25876190  0.43802000  1
  C  C1493  1  0.69602170  0.24123810  0.56198000  1
  C  C1494  1  0.30397830  0.74123810  0.93802000  1
  C  C1495  1  0.80397830  0.75876190  0.06198000  1
  C  C1496  1  0.43802000  0.19602170  0.25876190  1
  C  C1497  1  0.56198000  0.69602170  0.24123810  1
  C  C1498  1  0.93802000  0.30397830  0.74123810  1
  C  C1499  1  0.06198000  0.80397830  0.75876190  1
  C  C1500  1  0.74123810  0.56198000  0.80397830  1
  C  C1501  1  0.75876190  0.43802000  0.30397830  1
  C  C1502  1  0.25876190  0.06198000  0.69602170  1
  C  C1503  1  0.24123810  0.93802000  0.19602170  1
  C  C1504  1  0.80397830  0.74123810  0.56198000  1
  C  C1505  1  0.30397830  0.75876190  0.43802000  1
  C  C1506  1  0.69602170  0.25876190  0.06198000  1
  C  C1507  1  0.19602170  0.24123810  0.93802000  1
  C  C1508  1  0.56198000  0.80397830  0.74123810  1
  C  C1509  1  0.43802000  0.30397830  0.75876190  1
  C  C1510  1  0.06198000  0.69602170  0.25876190  1
  C  C1511  1  0.93802000  0.19602170  0.24123810  1
  H  H1512  1  0.26296000  0.42311000  0.20983000  1
  H  H1513  1  0.23704000  0.57689000  0.70983000  1
  H  H1514  1  0.73704000  0.92311000  0.29017000  1
  H  H1515  1  0.76296000  0.07689000  0.79017000  1
  H  H1516  1  0.20983000  0.26296000  0.42311000  1
  H  H1517  1  0.70983000  0.23704000  0.57689000  1
  H  H1518  1  0.29017000  0.73704000  0.92311000  1
  H  H1519  1  0.79017000  0.76296000  0.07689000  1
  H  H1520  1  0.42311000  0.20983000  0.26296000  1
  H  H1521  1  0.57689000  0.70983000  0.23704000  1
  H  H1522  1  0.92311000  0.29017000  0.73704000  1
  H  H1523  1  0.07689000  0.79017000  0.76296000  1
  H  H1524  1  0.73704000  0.57689000  0.79017000  1
  H  H1525  1  0.76296000  0.42311000  0.29017000  1
  H  H1526  1  0.26296000  0.07689000  0.70983000  1
  H  H1527  1  0.23704000  0.92311000  0.20983000  1
  H  H1528  1  0.79017000  0.73704000  0.57689000  1
  H  H1529  1  0.29017000  0.76296000  0.42311000  1
  H  H1530  1  0.70983000  0.26296000  0.07689000  1
  H  H1531  1  0.20983000  0.23704000  0.92311000  1
  H  H1532  1  0.57689000  0.79017000  0.73704000  1
  H  H1533  1  0.42311000  0.29017000  0.76296000  1
  H  H1534  1  0.07689000  0.70983000  0.26296000  1
  H  H1535  1  0.92311000  0.20983000  0.23704000  1
  C  C1536  1  0.33302000  0.48013000  0.26772000  1
  C  C1537  1  0.16698000  0.51987000  0.76772000  1
  C  C1538  1  0.66698000  0.98013000  0.23228000  1
  C  C1539  1  0.83302000  0.01987000  0.73228000  1
  C  C1540  1  0.26772000  0.33302000  0.48013000  1
  C  C1541  1  0.76772000  0.16698000  0.51987000  1
  C  C1542  1  0.23228000  0.66698000  0.98013000  1
  C  C1543  1  0.73228000  0.83302000  0.01987000  1
  C  C1544  1  0.48013000  0.26772000  0.33302000  1
  C  C1545  1  0.51987000  0.76772000  0.16698000  1
  C  C1546  1  0.98013000  0.23228000  0.66698000  1
  C  C1547  1  0.01987000  0.73228000  0.83302000  1
  C  C1548  1  0.66698000  0.51987000  0.73228000  1
  C  C1549  1  0.83302000  0.48013000  0.23228000  1
  C  C1550  1  0.33302000  0.01987000  0.76772000  1
  C  C1551  1  0.16698000  0.98013000  0.26772000  1
  C  C1552  1  0.73228000  0.66698000  0.51987000  1
  C  C1553  1  0.23228000  0.83302000  0.48013000  1
  C  C1554  1  0.76772000  0.33302000  0.01987000  1
  C  C1555  1  0.26772000  0.16698000  0.98013000  1
  C  C1556  1  0.51987000  0.73228000  0.66698000  1
  C  C1557  1  0.48013000  0.23228000  0.83302000  1
  C  C1558  1  0.01987000  0.76772000  0.33302000  1
  C  C1559  1  0.98013000  0.26772000  0.16698000  1
  C  C1560  1  0.31162000  0.45883000  0.27010190  1
  C  C1561  1  0.18838000  0.54117000  0.77010190  1
  C  C1562  1  0.68838000  0.95883000  0.22989810  1
  C  C1563  1  0.81162000  0.04117000  0.72989810  1
  C  C1564  1  0.27010190  0.31162000  0.45883000  1
  C  C1565  1  0.77010190  0.18838000  0.54117000  1
  C  C1566  1  0.22989810  0.68838000  0.95883000  1
  C  C1567  1  0.72989810  0.81162000  0.04117000  1
  C  C1568  1  0.45883000  0.27010190  0.31162000  1
  C  C1569  1  0.54117000  0.77010190  0.18838000  1
  C  C1570  1  0.95883000  0.22989810  0.68838000  1
  C  C1571  1  0.04117000  0.72989810  0.81162000  1
  C  C1572  1  0.68838000  0.54117000  0.72989810  1
  C  C1573  1  0.81162000  0.45883000  0.22989810  1
  C  C1574  1  0.31162000  0.04117000  0.77010190  1
  C  C1575  1  0.18838000  0.95883000  0.27010190  1
  C  C1576  1  0.72989810  0.68838000  0.54117000  1
  C  C1577  1  0.22989810  0.81162000  0.45883000  1
  C  C1578  1  0.77010190  0.31162000  0.04117000  1
  C  C1579  1  0.27010190  0.18838000  0.95883000  1
  C  C1580  1  0.54117000  0.72989810  0.68838000  1
  C  C1581  1  0.45883000  0.22989810  0.81162000  1
  C  C1582  1  0.04117000  0.77010190  0.31162000  1
  C  C1583  1  0.95883000  0.27010190  0.18838000  1
  H  H1584  1  0.31030000  0.44729000  0.28732000  1
  H  H1585  1  0.18970000  0.55271000  0.78732000  1
  H  H1586  1  0.68970000  0.94729000  0.21268000  1
  H  H1587  1  0.81030000  0.05271000  0.71268000  1
  H  H1588  1  0.28732000  0.31030000  0.44729000  1
  H  H1589  1  0.78732000  0.18970000  0.55271000  1
  H  H1590  1  0.21268000  0.68970000  0.94729000  1
  H  H1591  1  0.71268000  0.81030000  0.05271000  1
  H  H1592  1  0.44729000  0.28732000  0.31030000  1
  H  H1593  1  0.55271000  0.78732000  0.18970000  1
  H  H1594  1  0.94729000  0.21268000  0.68970000  1
  H  H1595  1  0.05271000  0.71268000  0.81030000  1
  H  H1596  1  0.68970000  0.55271000  0.71268000  1
  H  H1597  1  0.81030000  0.44729000  0.21268000  1
  H  H1598  1  0.31030000  0.05271000  0.78732000  1
  H  H1599  1  0.18970000  0.94729000  0.28732000  1
  H  H1600  1  0.71268000  0.68970000  0.55271000  1
  H  H1601  1  0.21268000  0.81030000  0.44729000  1
  H  H1602  1  0.78732000  0.31030000  0.05271000  1
  H  H1603  1  0.28732000  0.18970000  0.94729000  1
  H  H1604  1  0.55271000  0.71268000  0.68970000  1
  H  H1605  1  0.44729000  0.21268000  0.81030000  1
  H  H1606  1  0.05271000  0.78732000  0.31030000  1
  H  H1607  1  0.94729000  0.28732000  0.18970000  1
  C  C1608  1  0.29202000  0.45423000  0.24732000  1
  C  C1609  1  0.20798000  0.54577000  0.74732000  1
  C  C1610  1  0.70798000  0.95423000  0.25268000  1
  C  C1611  1  0.79202000  0.04577000  0.75268000  1
  C  C1612  1  0.24732000  0.29202000  0.45423000  1
  C  C1613  1  0.74732000  0.20798000  0.54577000  1
  C  C1614  1  0.25268000  0.70798000  0.95423000  1
  C  C1615  1  0.75268000  0.79202000  0.04577000  1
  C  C1616  1  0.45423000  0.24732000  0.29202000  1
  C  C1617  1  0.54577000  0.74732000  0.20798000  1
  C  C1618  1  0.95423000  0.25268000  0.70798000  1
  C  C1619  1  0.04577000  0.75268000  0.79202000  1
  C  C1620  1  0.70798000  0.54577000  0.75268000  1
  C  C1621  1  0.79202000  0.45423000  0.25268000  1
  C  C1622  1  0.29202000  0.04577000  0.74732000  1
  C  C1623  1  0.20798000  0.95423000  0.24732000  1
  C  C1624  1  0.75268000  0.70798000  0.54577000  1
  C  C1625  1  0.25268000  0.79202000  0.45423000  1
  C  C1626  1  0.74732000  0.29202000  0.04577000  1
  C  C1627  1  0.24732000  0.20798000  0.95423000  1
  C  C1628  1  0.54577000  0.75268000  0.70798000  1
  C  C1629  1  0.45423000  0.25268000  0.79202000  1
  C  C1630  1  0.04577000  0.74732000  0.29202000  1
  C  C1631  1  0.95423000  0.24732000  0.20798000  1
  H  H1632  1  0.27737000  0.43963000  0.24902000  1
  H  H1633  1  0.22263000  0.56037000  0.74902000  1
  H  H1634  1  0.72263000  0.93963000  0.25098000  1
  H  H1635  1  0.77737000  0.06037000  0.75098000  1
  H  H1636  1  0.24902000  0.27737000  0.43963000  1
  H  H1637  1  0.74902000  0.22263000  0.56037000  1
  H  H1638  1  0.25098000  0.72263000  0.93963000  1
  H  H1639  1  0.75098000  0.77737000  0.06037000  1
  H  H1640  1  0.43963000  0.24902000  0.27737000  1
  H  H1641  1  0.56037000  0.74902000  0.22263000  1
  H  H1642  1  0.93963000  0.25098000  0.72263000  1
  H  H1643  1  0.06037000  0.75098000  0.77737000  1
  H  H1644  1  0.72263000  0.56037000  0.75098000  1
  H  H1645  1  0.77737000  0.43963000  0.25098000  1
  H  H1646  1  0.27737000  0.06037000  0.74902000  1
  H  H1647  1  0.22263000  0.93963000  0.24902000  1
  H  H1648  1  0.75098000  0.72263000  0.56037000  1
  H  H1649  1  0.25098000  0.77737000  0.43963000  1
  H  H1650  1  0.74902000  0.27737000  0.06037000  1
  H  H1651  1  0.24902000  0.22263000  0.93963000  1
  H  H1652  1  0.56037000  0.75098000  0.72263000  1
  H  H1653  1  0.43963000  0.25098000  0.77737000  1
  H  H1654  1  0.06037000  0.74902000  0.27737000  1
  H  H1655  1  0.93963000  0.24902000  0.22263000  1
  C  C1656  1  0.29392000  0.47103000  0.22212000  1
  C  C1657  1  0.20608000  0.52897000  0.72212000  1
  C  C1658  1  0.70608000  0.97103000  0.27788000  1
  C  C1659  1  0.79392000  0.02897000  0.77788000  1
  C  C1660  1  0.22212000  0.29392000  0.47103000  1
  C  C1661  1  0.72212000  0.20608000  0.52897000  1
  C  C1662  1  0.27788000  0.70608000  0.97103000  1
  C  C1663  1  0.77788000  0.79392000  0.02897000  1
  C  C1664  1  0.47103000  0.22212000  0.29392000  1
  C  C1665  1  0.52897000  0.72212000  0.20608000  1
  C  C1666  1  0.97103000  0.27788000  0.70608000  1
  C  C1667  1  0.02897000  0.77788000  0.79392000  1
  C  C1668  1  0.70608000  0.52897000  0.77788000  1
  C  C1669  1  0.79392000  0.47103000  0.27788000  1
  C  C1670  1  0.29392000  0.02897000  0.72212000  1
  C  C1671  1  0.20608000  0.97103000  0.22212000  1
  C  C1672  1  0.77788000  0.70608000  0.52897000  1
  C  C1673  1  0.27788000  0.79392000  0.47103000  1
  C  C1674  1  0.72212000  0.29392000  0.02897000  1
  C  C1675  1  0.22212000  0.20608000  0.97103000  1
  C  C1676  1  0.52897000  0.77788000  0.70608000  1
  C  C1677  1  0.47103000  0.27788000  0.79392000  1
  C  C1678  1  0.02897000  0.72212000  0.29392000  1
  C  C1679  1  0.97103000  0.22212000  0.20608000  1
  C  C1680  1  0.31533000  0.49243000  0.21972000  1
  C  C1681  1  0.18467000  0.50757000  0.71972000  1
  C  C1682  1  0.68467000  0.99243000  0.28028000  1
  C  C1683  1  0.81533000  0.00757000  0.78028000  1
  C  C1684  1  0.21972000  0.31533000  0.49243000  1
  C  C1685  1  0.71972000  0.18467000  0.50757000  1
  C  C1686  1  0.28028000  0.68467000  0.99243000  1
  C  C1687  1  0.78028000  0.81533000  0.00757000  1
  C  C1688  1  0.49243000  0.21972000  0.31533000  1
  C  C1689  1  0.50757000  0.71972000  0.18467000  1
  C  C1690  1  0.99243000  0.28028000  0.68467000  1
  C  C1691  1  0.00757000  0.78028000  0.81533000  1
  C  C1692  1  0.68467000  0.50757000  0.78028000  1
  C  C1693  1  0.81533000  0.49243000  0.28028000  1
  C  C1694  1  0.31533000  0.00757000  0.71972000  1
  C  C1695  1  0.18467000  0.99243000  0.21972000  1
  C  C1696  1  0.78028000  0.68467000  0.50757000  1
  C  C1697  1  0.28028000  0.81533000  0.49243000  1
  C  C1698  1  0.71972000  0.31533000  0.00757000  1
  C  C1699  1  0.21972000  0.18467000  0.99243000  1
  C  C1700  1  0.50757000  0.78028000  0.68467000  1
  C  C1701  1  0.49243000  0.28028000  0.81533000  1
  C  C1702  1  0.00757000  0.71972000  0.31533000  1
  C  C1703  1  0.99243000  0.21972000  0.18467000  1
  H  H1704  1  0.31654000  0.50390000  0.20248000  1
  H  H1705  1  0.18346000  0.49610000  0.70248000  1
  H  H1706  1  0.68346000  0.00390000  0.29752000  1
  H  H1707  1  0.81654000  0.00000000  0.79752000  1
  H  H1708  1  0.20248000  0.31654000  0.50390000  1
  H  H1709  1  0.70248000  0.18346000  0.49610000  1
  H  H1710  1  0.29752000  0.68346000  0.00390000  1
  H  H1711  1  0.79752000  0.81654000  0.00000000  1
  H  H1712  1  0.50390000  0.20248000  0.31654000  1
  H  H1713  1  0.49610000  0.70248000  0.18346000  1
  H  H1714  1  0.00390000  0.29752000  0.68346000  1
  H  H1715  1  0.00000000  0.79752000  0.81654000  1
  H  H1716  1  0.68346000  0.49610000  0.79752000  1
  H  H1717  1  0.81654000  0.50390000  0.29752000  1
  H  H1718  1  0.31654000  0.00000000  0.70248000  1
  H  H1719  1  0.18346000  0.00390000  0.20248000  1
  H  H1720  1  0.79752000  0.68346000  0.49610000  1
  H  H1721  1  0.29752000  0.81654000  0.50390000  1
  H  H1722  1  0.70248000  0.31654000  0.00000000  1
  H  H1723  1  0.20248000  0.18346000  0.00390000  1
  H  H1724  1  0.49610000  0.79752000  0.68346000  1
  H  H1725  1  0.50390000  0.29752000  0.81654000  1
  H  H1726  1  0.00000000  0.70248000  0.31654000  1
  H  H1727  1  0.00390000  0.20248000  0.18346000  1
  C  C1728  1  0.33482000  0.49703000  0.24253000  1
  C  C1729  1  0.16518000  0.50297000  0.74253000  1
  C  C1730  1  0.66518000  0.00000000  0.25747000  1
  C  C1731  1  0.83482000  0.00297000  0.75747000  1
  C  C1732  1  0.24253000  0.33482000  0.49703000  1
  C  C1733  1  0.74253000  0.16518000  0.50297000  1
  C  C1734  1  0.25747000  0.66518000  0.00000000  1
  C  C1735  1  0.75747000  0.83482000  0.00297000  1
  C  C1736  1  0.49703000  0.24253000  0.33482000  1
  C  C1737  1  0.50297000  0.74253000  0.16518000  1
  C  C1738  1  0.00000000  0.25747000  0.66518000  1
  C  C1739  1  0.00297000  0.75747000  0.83482000  1
  C  C1740  1  0.66518000  0.50297000  0.75747000  1
  C  C1741  1  0.83482000  0.49703000  0.25747000  1
  C  C1742  1  0.33482000  0.00297000  0.74253000  1
  C  C1743  1  0.16518000  0.00000000  0.24253000  1
  C  C1744  1  0.75747000  0.66518000  0.50297000  1
  C  C1745  1  0.25747000  0.83482000  0.49703000  1
  C  C1746  1  0.74253000  0.33482000  0.00297000  1
  C  C1747  1  0.24253000  0.16518000  0.00000000  1
  C  C1748  1  0.50297000  0.75747000  0.66518000  1
  C  C1749  1  0.49703000  0.25747000  0.83482000  1
  C  C1750  1  0.00297000  0.74253000  0.33482000  1
  C  C1751  1  0.00000000  0.24253000  0.16518000  1
  H  H1752  1  0.34947000  0.51156000  0.24079000  1
  H  H1753  1  0.15053000  0.48844000  0.74079000  1
  H  H1754  1  0.65053000  0.01156000  0.25921000  1
  H  H1755  1  0.84947000  0.98844000  0.75921000  1
  H  H1756  1  0.24079000  0.34947000  0.51156000  1
  H  H1757  1  0.74079000  0.15053000  0.48844000  1
  H  H1758  1  0.25921000  0.65053000  0.01156000  1
  H  H1759  1  0.75921000  0.84947000  0.98844000  1
  H  H1760  1  0.51156000  0.24079000  0.34947000  1
  H  H1761  1  0.48844000  0.74079000  0.15053000  1
  H  H1762  1  0.01156000  0.25921000  0.65053000  1
  H  H1763  1  0.98844000  0.75921000  0.84947000  1
  H  H1764  1  0.65053000  0.48844000  0.75921000  1
  H  H1765  1  0.84947000  0.51156000  0.25921000  1
  H  H1766  1  0.34947000  0.98844000  0.74079000  1
  H  H1767  1  0.15053000  0.01156000  0.24079000  1
  H  H1768  1  0.75921000  0.65053000  0.48844000  1
  H  H1769  1  0.25921000  0.84947000  0.51156000  1
  H  H1770  1  0.74079000  0.34947000  0.98844000  1
  H  H1771  1  0.24079000  0.15053000  0.01156000  1
  H  H1772  1  0.48844000  0.75921000  0.65053000  1
  H  H1773  1  0.51156000  0.25921000  0.84947000  1
  H  H1774  1  0.98844000  0.74079000  0.34947000  1
  H  H1775  1  0.01156000  0.24079000  0.15053000  1
