# generated using pymatgen
data_CuH10C18O5
_symmetry_space_group_name_H-M   'P 1'
_cell_length_a   26.96830000
_cell_length_b   26.96830000
_cell_length_c   26.96830000
_cell_angle_alpha   90.00000000
_cell_angle_beta   90.00000000
_cell_angle_gamma   90.00000000
_symmetry_Int_Tables_number   1
_chemical_formula_structural   CuH10C18O5
_chemical_formula_sum   'Cu24 H240 C432 O120'
_cell_volume   19613.75346423
_cell_formula_units_Z   24
loop_
 _symmetry_equiv_pos_site_id
 _symmetry_equiv_pos_as_xyz
  1  'x, y, z'
loop_
 _atom_site_type_symbol
 _atom_site_label
 _atom_site_symmetry_multiplicity
 _atom_site_fract_x
 _atom_site_fract_y
 _atom_site_fract_z
 _atom_site_occupancy
  Cu  Cu0  1  0.50000000  0.00000000  0.14397500  1
  Cu  Cu1  1  0.14397500  0.50000000  0.00000000  1
  Cu  Cu2  1  0.00000000  0.14397500  0.50000000  1
  Cu  Cu3  1  0.00000000  0.85602500  0.50000000  1
  Cu  Cu4  1  0.85602500  0.50000000  0.00000000  1
  Cu  Cu5  1  0.50000000  0.00000000  0.85602500  1
  Cu  Cu6  1  0.00000000  0.50000000  0.64397500  1
  Cu  Cu7  1  0.64397500  0.00000000  0.50000000  1
  Cu  Cu8  1  0.50000000  0.64397500  0.00000000  1
  Cu  Cu9  1  0.50000000  0.35602500  0.00000000  1
  Cu  Cu10  1  0.35602500  0.00000000  0.50000000  1
  Cu  Cu11  1  0.00000000  0.50000000  0.35602500  1
  Cu  Cu12  1  0.50000000  0.00000000  0.24010500  1
  Cu  Cu13  1  0.24010500  0.50000000  0.00000000  1
  Cu  Cu14  1  0.00000000  0.24010500  0.50000000  1
  Cu  Cu15  1  0.00000000  0.75989500  0.50000000  1
  Cu  Cu16  1  0.75989500  0.50000000  0.00000000  1
  Cu  Cu17  1  0.50000000  0.00000000  0.75989500  1
  Cu  Cu18  1  0.00000000  0.50000000  0.74010500  1
  Cu  Cu19  1  0.74010500  0.00000000  0.50000000  1
  Cu  Cu20  1  0.50000000  0.74010500  0.00000000  1
  Cu  Cu21  1  0.50000000  0.25989500  0.00000000  1
  Cu  Cu22  1  0.25989500  0.00000000  0.50000000  1
  Cu  Cu23  1  0.00000000  0.50000000  0.25989500  1
  O  O24  1  0.44750130  0.05035150  0.14882150  1
  O  O25  1  0.14882150  0.44750130  0.05035150  1
  O  O26  1  0.05035150  0.14882150  0.44750130  1
  O  O27  1  0.94964850  0.85117850  0.44750130  1
  O  O28  1  0.14882150  0.55249870  0.94964850  1
  O  O29  1  0.94964850  0.14882150  0.55249870  1
  O  O30  1  0.85117850  0.55249870  0.05035150  1
  O  O31  1  0.85117850  0.44750130  0.94964850  1
  O  O32  1  0.05035150  0.85117850  0.55249870  1
  O  O33  1  0.55249870  0.94964850  0.14882150  1
  O  O34  1  0.44750130  0.94964850  0.85117850  1
  O  O35  1  0.55249870  0.05035150  0.85117850  1
  O  O36  1  0.94750130  0.55035150  0.64882150  1
  O  O37  1  0.64882150  0.94750130  0.55035150  1
  O  O38  1  0.55035150  0.64882150  0.94750130  1
  O  O39  1  0.44964850  0.35117850  0.94750130  1
  O  O40  1  0.64882150  0.05249870  0.44964850  1
  O  O41  1  0.44964850  0.64882150  0.05249870  1
  O  O42  1  0.35117850  0.05249870  0.55035150  1
  O  O43  1  0.35117850  0.94750130  0.44964850  1
  O  O44  1  0.55035150  0.35117850  0.05249870  1
  O  O45  1  0.05249870  0.44964850  0.64882150  1
  O  O46  1  0.94750130  0.44964850  0.35117850  1
  O  O47  1  0.05249870  0.55035150  0.35117850  1
  O  O48  1  0.55249870  0.94964850  0.85117850  1
  O  O49  1  0.85117850  0.55249870  0.94964850  1
  O  O50  1  0.94964850  0.85117850  0.55249870  1
  O  O51  1  0.05035150  0.14882150  0.55249870  1
  O  O52  1  0.85117850  0.44750130  0.05035150  1
  O  O53  1  0.05035150  0.85117850  0.44750130  1
  O  O54  1  0.14882150  0.44750130  0.94964850  1
  O  O55  1  0.14882150  0.55249870  0.05035150  1
  O  O56  1  0.94964850  0.14882150  0.44750130  1
  O  O57  1  0.44750130  0.05035150  0.85117850  1
  O  O58  1  0.55249870  0.05035150  0.14882150  1
  O  O59  1  0.44750130  0.94964850  0.14882150  1
  O  O60  1  0.05249870  0.44964850  0.35117850  1
  O  O61  1  0.35117850  0.05249870  0.44964850  1
  O  O62  1  0.44964850  0.35117850  0.05249870  1
  O  O63  1  0.55035150  0.64882150  0.05249870  1
  O  O64  1  0.35117850  0.94750130  0.55035150  1
  O  O65  1  0.55035150  0.35117850  0.94750130  1
  O  O66  1  0.64882150  0.94750130  0.44964850  1
  O  O67  1  0.64882150  0.05249870  0.55035150  1
  O  O68  1  0.44964850  0.64882150  0.94750130  1
  O  O69  1  0.94750130  0.55035150  0.35117850  1
  O  O70  1  0.05249870  0.55035150  0.64882150  1
  O  O71  1  0.94750130  0.44964850  0.64882150  1
  O  O72  1  0.44848160  0.04907170  0.23106160  1
  O  O73  1  0.23106160  0.44848160  0.04907170  1
  O  O74  1  0.04907170  0.23106160  0.44848160  1
  O  O75  1  0.95092830  0.76893840  0.44848160  1
  O  O76  1  0.23106160  0.55151840  0.95092830  1
  O  O77  1  0.95092830  0.23106160  0.55151840  1
  O  O78  1  0.76893840  0.55151840  0.04907170  1
  O  O79  1  0.76893840  0.44848160  0.95092830  1
  O  O80  1  0.04907170  0.76893840  0.55151840  1
  O  O81  1  0.55151840  0.95092830  0.23106160  1
  O  O82  1  0.44848160  0.95092830  0.76893840  1
  O  O83  1  0.55151840  0.04907170  0.76893840  1
  O  O84  1  0.94848160  0.54907170  0.73106160  1
  O  O85  1  0.73106160  0.94848160  0.54907170  1
  O  O86  1  0.54907170  0.73106160  0.94848160  1
  O  O87  1  0.45092830  0.26893840  0.94848160  1
  O  O88  1  0.73106160  0.05151840  0.45092830  1
  O  O89  1  0.45092830  0.73106160  0.05151840  1
  O  O90  1  0.26893840  0.05151840  0.54907170  1
  O  O91  1  0.26893840  0.94848160  0.45092830  1
  O  O92  1  0.54907170  0.26893840  0.05151840  1
  O  O93  1  0.05151840  0.45092830  0.73106160  1
  O  O94  1  0.94848160  0.45092830  0.26893840  1
  O  O95  1  0.05151840  0.54907170  0.26893840  1
  O  O96  1  0.55151840  0.95092830  0.76893840  1
  O  O97  1  0.76893840  0.55151840  0.95092830  1
  O  O98  1  0.95092830  0.76893840  0.55151840  1
  O  O99  1  0.04907170  0.23106160  0.55151840  1
  O  O100  1  0.76893840  0.44848160  0.04907170  1
  O  O101  1  0.04907170  0.76893840  0.44848160  1
  O  O102  1  0.23106160  0.44848160  0.95092830  1
  O  O103  1  0.23106160  0.55151840  0.04907170  1
  O  O104  1  0.95092830  0.23106160  0.44848160  1
  O  O105  1  0.44848160  0.04907170  0.76893840  1
  O  O106  1  0.55151840  0.04907170  0.23106160  1
  O  O107  1  0.44848160  0.95092830  0.23106160  1
  O  O108  1  0.05151840  0.45092830  0.26893840  1
  O  O109  1  0.26893840  0.05151840  0.45092830  1
  O  O110  1  0.45092830  0.26893840  0.05151840  1
  O  O111  1  0.54907170  0.73106160  0.05151840  1
  O  O112  1  0.26893840  0.94848160  0.54907170  1
  O  O113  1  0.54907170  0.26893840  0.94848160  1
  O  O114  1  0.73106160  0.94848160  0.45092830  1
  O  O115  1  0.73106160  0.05151840  0.54907170  1
  O  O116  1  0.45092830  0.73106160  0.94848160  1
  O  O117  1  0.94848160  0.54907170  0.26893840  1
  O  O118  1  0.05151840  0.54907170  0.73106160  1
  O  O119  1  0.94848160  0.45092830  0.73106160  1
  C  C120  1  0.29442000  0.14542000  0.19752000  1
  C  C121  1  0.19752000  0.29442000  0.14542000  1
  C  C122  1  0.14542000  0.19752000  0.29442000  1
  C  C123  1  0.85458000  0.80248000  0.29442000  1
  C  C124  1  0.19752000  0.70558000  0.85458000  1
  C  C125  1  0.85458000  0.19752000  0.70558000  1
  C  C126  1  0.80248000  0.70558000  0.14542000  1
  C  C127  1  0.80248000  0.29442000  0.85458000  1
  C  C128  1  0.14542000  0.80248000  0.70558000  1
  C  C129  1  0.70558000  0.85458000  0.19752000  1
  C  C130  1  0.29442000  0.85458000  0.80248000  1
  C  C131  1  0.70558000  0.14542000  0.80248000  1
  C  C132  1  0.79442000  0.64542000  0.69752000  1
  C  C133  1  0.69752000  0.79442000  0.64542000  1
  C  C134  1  0.64542000  0.69752000  0.79442000  1
  C  C135  1  0.35458000  0.30248000  0.79442000  1
  C  C136  1  0.69752000  0.20558000  0.35458000  1
  C  C137  1  0.35458000  0.69752000  0.20558000  1
  C  C138  1  0.30248000  0.20558000  0.64542000  1
  C  C139  1  0.30248000  0.79442000  0.35458000  1
  C  C140  1  0.64542000  0.30248000  0.20558000  1
  C  C141  1  0.20558000  0.35458000  0.69752000  1
  C  C142  1  0.79442000  0.35458000  0.30248000  1
  C  C143  1  0.20558000  0.64542000  0.30248000  1
  C  C144  1  0.70558000  0.85458000  0.80248000  1
  C  C145  1  0.80248000  0.70558000  0.85458000  1
  C  C146  1  0.85458000  0.80248000  0.70558000  1
  C  C147  1  0.14542000  0.19752000  0.70558000  1
  C  C148  1  0.80248000  0.29442000  0.14542000  1
  C  C149  1  0.14542000  0.80248000  0.29442000  1
  C  C150  1  0.19752000  0.29442000  0.85458000  1
  C  C151  1  0.19752000  0.70558000  0.14542000  1
  C  C152  1  0.85458000  0.19752000  0.29442000  1
  C  C153  1  0.29442000  0.14542000  0.80248000  1
  C  C154  1  0.70558000  0.14542000  0.19752000  1
  C  C155  1  0.29442000  0.85458000  0.19752000  1
  C  C156  1  0.20558000  0.35458000  0.30248000  1
  C  C157  1  0.30248000  0.20558000  0.35458000  1
  C  C158  1  0.35458000  0.30248000  0.20558000  1
  C  C159  1  0.64542000  0.69752000  0.20558000  1
  C  C160  1  0.30248000  0.79442000  0.64542000  1
  C  C161  1  0.64542000  0.30248000  0.79442000  1
  C  C162  1  0.69752000  0.79442000  0.35458000  1
  C  C163  1  0.69752000  0.20558000  0.64542000  1
  C  C164  1  0.35458000  0.69752000  0.79442000  1
  C  C165  1  0.79442000  0.64542000  0.30248000  1
  C  C166  1  0.20558000  0.64542000  0.69752000  1
  C  C167  1  0.79442000  0.35458000  0.69752000  1
  C  C168  1  0.43052000  0.06202000  0.19032000  1
  C  C169  1  0.19032000  0.43052000  0.06202000  1
  C  C170  1  0.06202000  0.19032000  0.43052000  1
  C  C171  1  0.93798000  0.80968000  0.43052000  1
  C  C172  1  0.19032000  0.56948000  0.93798000  1
  C  C173  1  0.93798000  0.19032000  0.56948000  1
  C  C174  1  0.80968000  0.56948000  0.06202000  1
  C  C175  1  0.80968000  0.43052000  0.93798000  1
  C  C176  1  0.06202000  0.80968000  0.56948000  1
  C  C177  1  0.56948000  0.93798000  0.19032000  1
  C  C178  1  0.43052000  0.93798000  0.80968000  1
  C  C179  1  0.56948000  0.06202000  0.80968000  1
  C  C180  1  0.93052000  0.56202000  0.69032000  1
  C  C181  1  0.69032000  0.93052000  0.56202000  1
  C  C182  1  0.56202000  0.69032000  0.93052000  1
  C  C183  1  0.43798000  0.30968000  0.93052000  1
  C  C184  1  0.69032000  0.06948000  0.43798000  1
  C  C185  1  0.43798000  0.69032000  0.06948000  1
  C  C186  1  0.30968000  0.06948000  0.56202000  1
  C  C187  1  0.30968000  0.93052000  0.43798000  1
  C  C188  1  0.56202000  0.30968000  0.06948000  1
  C  C189  1  0.06948000  0.43798000  0.69032000  1
  C  C190  1  0.93052000  0.43798000  0.30968000  1
  C  C191  1  0.06948000  0.56202000  0.30968000  1
  C  C192  1  0.56948000  0.93798000  0.80968000  1
  C  C193  1  0.80968000  0.56948000  0.93798000  1
  C  C194  1  0.93798000  0.80968000  0.56948000  1
  C  C195  1  0.06202000  0.19032000  0.56948000  1
  C  C196  1  0.80968000  0.43052000  0.06202000  1
  C  C197  1  0.06202000  0.80968000  0.43052000  1
  C  C198  1  0.19032000  0.43052000  0.93798000  1
  C  C199  1  0.19032000  0.56948000  0.06202000  1
  C  C200  1  0.93798000  0.19032000  0.43052000  1
  C  C201  1  0.43052000  0.06202000  0.80968000  1
  C  C202  1  0.56948000  0.06202000  0.19032000  1
  C  C203  1  0.43052000  0.93798000  0.19032000  1
  C  C204  1  0.06948000  0.43798000  0.30968000  1
  C  C205  1  0.30968000  0.06948000  0.43798000  1
  C  C206  1  0.43798000  0.30968000  0.06948000  1
  C  C207  1  0.56202000  0.69032000  0.06948000  1
  C  C208  1  0.30968000  0.93052000  0.56202000  1
  C  C209  1  0.56202000  0.30968000  0.93052000  1
  C  C210  1  0.69032000  0.93052000  0.43798000  1
  C  C211  1  0.69032000  0.06948000  0.56202000  1
  C  C212  1  0.43798000  0.69032000  0.93052000  1
  C  C213  1  0.93052000  0.56202000  0.30968000  1
  C  C214  1  0.06948000  0.56202000  0.69032000  1
  C  C215  1  0.93052000  0.43798000  0.69032000  1
  C  C216  1  0.35982000  0.10672000  0.14922000  1
  C  C217  1  0.14922000  0.35982000  0.10672000  1
  C  C218  1  0.10672000  0.14922000  0.35982000  1
  C  C219  1  0.89328000  0.85078000  0.35982000  1
  C  C220  1  0.14922000  0.64018000  0.89328000  1
  C  C221  1  0.89328000  0.14922000  0.64018000  1
  C  C222  1  0.85078000  0.64018000  0.10672000  1
  C  C223  1  0.85078000  0.35982000  0.89328000  1
  C  C224  1  0.10672000  0.85078000  0.64018000  1
  C  C225  1  0.64018000  0.89328000  0.14922000  1
  C  C226  1  0.35982000  0.89328000  0.85078000  1
  C  C227  1  0.64018000  0.10672000  0.85078000  1
  C  C228  1  0.85982000  0.60672000  0.64922000  1
  C  C229  1  0.64922000  0.85982000  0.60672000  1
  C  C230  1  0.60672000  0.64922000  0.85982000  1
  C  C231  1  0.39328000  0.35078000  0.85982000  1
  C  C232  1  0.64922000  0.14018000  0.39328000  1
  C  C233  1  0.39328000  0.64922000  0.14018000  1
  C  C234  1  0.35078000  0.14018000  0.60672000  1
  C  C235  1  0.35078000  0.85982000  0.39328000  1
  C  C236  1  0.60672000  0.35078000  0.14018000  1
  C  C237  1  0.14018000  0.39328000  0.64922000  1
  C  C238  1  0.85982000  0.39328000  0.35078000  1
  C  C239  1  0.14018000  0.60672000  0.35078000  1
  C  C240  1  0.64018000  0.89328000  0.85078000  1
  C  C241  1  0.85078000  0.64018000  0.89328000  1
  C  C242  1  0.89328000  0.85078000  0.64018000  1
  C  C243  1  0.10672000  0.14922000  0.64018000  1
  C  C244  1  0.85078000  0.35982000  0.10672000  1
  C  C245  1  0.10672000  0.85078000  0.35982000  1
  C  C246  1  0.14922000  0.35982000  0.89328000  1
  C  C247  1  0.14922000  0.64018000  0.10672000  1
  C  C248  1  0.89328000  0.14922000  0.35982000  1
  C  C249  1  0.35982000  0.10672000  0.85078000  1
  C  C250  1  0.64018000  0.10672000  0.14922000  1
  C  C251  1  0.35982000  0.89328000  0.14922000  1
  C  C252  1  0.14018000  0.39328000  0.35078000  1
  C  C253  1  0.35078000  0.14018000  0.39328000  1
  C  C254  1  0.39328000  0.35078000  0.14018000  1
  C  C255  1  0.60672000  0.64922000  0.14018000  1
  C  C256  1  0.35078000  0.85982000  0.60672000  1
  C  C257  1  0.60672000  0.35078000  0.85982000  1
  C  C258  1  0.64922000  0.85982000  0.39328000  1
  C  C259  1  0.64922000  0.14018000  0.60672000  1
  C  C260  1  0.39328000  0.64922000  0.85982000  1
  C  C261  1  0.85982000  0.60672000  0.35078000  1
  C  C262  1  0.14018000  0.60672000  0.64922000  1
  C  C263  1  0.85982000  0.39328000  0.64922000  1
  H  H264  1  0.37300000  0.09820000  0.11850000  1
  H  H265  1  0.11850000  0.37300000  0.09820000  1
  H  H266  1  0.09820000  0.11850000  0.37300000  1
  H  H267  1  0.90180000  0.88150000  0.37300000  1
  H  H268  1  0.11850000  0.62700000  0.90180000  1
  H  H269  1  0.90180000  0.11850000  0.62700000  1
  H  H270  1  0.88150000  0.62700000  0.09820000  1
  H  H271  1  0.88150000  0.37300000  0.90180000  1
  H  H272  1  0.09820000  0.88150000  0.62700000  1
  H  H273  1  0.62700000  0.90180000  0.11850000  1
  H  H274  1  0.37300000  0.90180000  0.88150000  1
  H  H275  1  0.62700000  0.09820000  0.88150000  1
  H  H276  1  0.87300000  0.59820000  0.61850000  1
  H  H277  1  0.61850000  0.87300000  0.59820000  1
  H  H278  1  0.59820000  0.61850000  0.87300000  1
  H  H279  1  0.40180000  0.38150000  0.87300000  1
  H  H280  1  0.61850000  0.12700000  0.40180000  1
  H  H281  1  0.40180000  0.61850000  0.12700000  1
  H  H282  1  0.38150000  0.12700000  0.59820000  1
  H  H283  1  0.38150000  0.87300000  0.40180000  1
  H  H284  1  0.59820000  0.38150000  0.12700000  1
  H  H285  1  0.12700000  0.40180000  0.61850000  1
  H  H286  1  0.87300000  0.40180000  0.38150000  1
  H  H287  1  0.12700000  0.59820000  0.38150000  1
  H  H288  1  0.62700000  0.90180000  0.88150000  1
  H  H289  1  0.88150000  0.62700000  0.90180000  1
  H  H290  1  0.90180000  0.88150000  0.62700000  1
  H  H291  1  0.09820000  0.11850000  0.62700000  1
  H  H292  1  0.88150000  0.37300000  0.09820000  1
  H  H293  1  0.09820000  0.88150000  0.37300000  1
  H  H294  1  0.11850000  0.37300000  0.90180000  1
  H  H295  1  0.11850000  0.62700000  0.09820000  1
  H  H296  1  0.90180000  0.11850000  0.37300000  1
  H  H297  1  0.37300000  0.09820000  0.88150000  1
  H  H298  1  0.62700000  0.09820000  0.11850000  1
  H  H299  1  0.37300000  0.90180000  0.11850000  1
  H  H300  1  0.12700000  0.40180000  0.38150000  1
  H  H301  1  0.38150000  0.12700000  0.40180000  1
  H  H302  1  0.40180000  0.38150000  0.12700000  1
  H  H303  1  0.59820000  0.61850000  0.12700000  1
  H  H304  1  0.38150000  0.87300000  0.59820000  1
  H  H305  1  0.59820000  0.38150000  0.87300000  1
  H  H306  1  0.61850000  0.87300000  0.40180000  1
  H  H307  1  0.61850000  0.12700000  0.59820000  1
  H  H308  1  0.40180000  0.61850000  0.87300000  1
  H  H309  1  0.87300000  0.59820000  0.38150000  1
  H  H310  1  0.12700000  0.59820000  0.61850000  1
  H  H311  1  0.87300000  0.40180000  0.61850000  1
  C  C312  1  0.31972000  0.12982000  0.24122000  1
  C  C313  1  0.24122000  0.31972000  0.12982000  1
  C  C314  1  0.12982000  0.24122000  0.31972000  1
  C  C315  1  0.87018000  0.75878000  0.31972000  1
  C  C316  1  0.24122000  0.68028000  0.87018000  1
  C  C317  1  0.87018000  0.24122000  0.68028000  1
  C  C318  1  0.75878000  0.68028000  0.12982000  1
  C  C319  1  0.75878000  0.31972000  0.87018000  1
  C  C320  1  0.12982000  0.75878000  0.68028000  1
  C  C321  1  0.68028000  0.87018000  0.24122000  1
  C  C322  1  0.31972000  0.87018000  0.75878000  1
  C  C323  1  0.68028000  0.12982000  0.75878000  1
  C  C324  1  0.81972000  0.62982000  0.74122000  1
  C  C325  1  0.74122000  0.81972000  0.62982000  1
  C  C326  1  0.62982000  0.74122000  0.81972000  1
  C  C327  1  0.37018000  0.25878000  0.81972000  1
  C  C328  1  0.74122000  0.18028000  0.37018000  1
  C  C329  1  0.37018000  0.74122000  0.18028000  1
  C  C330  1  0.25878000  0.18028000  0.62982000  1
  C  C331  1  0.25878000  0.81972000  0.37018000  1
  C  C332  1  0.62982000  0.25878000  0.18028000  1
  C  C333  1  0.18028000  0.37018000  0.74122000  1
  C  C334  1  0.81972000  0.37018000  0.25878000  1
  C  C335  1  0.18028000  0.62982000  0.25878000  1
  C  C336  1  0.68028000  0.87018000  0.75878000  1
  C  C337  1  0.75878000  0.68028000  0.87018000  1
  C  C338  1  0.87018000  0.75878000  0.68028000  1
  C  C339  1  0.12982000  0.24122000  0.68028000  1
  C  C340  1  0.75878000  0.31972000  0.12982000  1
  C  C341  1  0.12982000  0.75878000  0.31972000  1
  C  C342  1  0.24122000  0.31972000  0.87018000  1
  C  C343  1  0.24122000  0.68028000  0.12982000  1
  C  C344  1  0.87018000  0.24122000  0.31972000  1
  C  C345  1  0.31972000  0.12982000  0.75878000  1
  C  C346  1  0.68028000  0.12982000  0.24122000  1
  C  C347  1  0.31972000  0.87018000  0.24122000  1
  C  C348  1  0.18028000  0.37018000  0.25878000  1
  C  C349  1  0.25878000  0.18028000  0.37018000  1
  C  C350  1  0.37018000  0.25878000  0.18028000  1
  C  C351  1  0.62982000  0.74122000  0.18028000  1
  C  C352  1  0.25878000  0.81972000  0.62982000  1
  C  C353  1  0.62982000  0.25878000  0.81972000  1
  C  C354  1  0.74122000  0.81972000  0.37018000  1
  C  C355  1  0.74122000  0.18028000  0.62982000  1
  C  C356  1  0.37018000  0.74122000  0.81972000  1
  C  C357  1  0.81972000  0.62982000  0.25878000  1
  C  C358  1  0.18028000  0.62982000  0.74122000  1
  C  C359  1  0.81972000  0.37018000  0.74122000  1
  H  H360  1  0.30640000  0.13690000  0.27220000  1
  H  H361  1  0.27220000  0.30640000  0.13690000  1
  H  H362  1  0.13690000  0.27220000  0.30640000  1
  H  H363  1  0.86310000  0.72780000  0.30640000  1
  H  H364  1  0.27220000  0.69360000  0.86310000  1
  H  H365  1  0.86310000  0.27220000  0.69360000  1
  H  H366  1  0.72780000  0.69360000  0.13690000  1
  H  H367  1  0.72780000  0.30640000  0.86310000  1
  H  H368  1  0.13690000  0.72780000  0.69360000  1
  H  H369  1  0.69360000  0.86310000  0.27220000  1
  H  H370  1  0.30640000  0.86310000  0.72780000  1
  H  H371  1  0.69360000  0.13690000  0.72780000  1
  H  H372  1  0.80640000  0.63690000  0.77220000  1
  H  H373  1  0.77220000  0.80640000  0.63690000  1
  H  H374  1  0.63690000  0.77220000  0.80640000  1
  H  H375  1  0.36310000  0.22780000  0.80640000  1
  H  H376  1  0.77220000  0.19360000  0.36310000  1
  H  H377  1  0.36310000  0.77220000  0.19360000  1
  H  H378  1  0.22780000  0.19360000  0.63690000  1
  H  H379  1  0.22780000  0.80640000  0.36310000  1
  H  H380  1  0.63690000  0.22780000  0.19360000  1
  H  H381  1  0.19360000  0.36310000  0.77220000  1
  H  H382  1  0.80640000  0.36310000  0.22780000  1
  H  H383  1  0.19360000  0.63690000  0.22780000  1
  H  H384  1  0.69360000  0.86310000  0.72780000  1
  H  H385  1  0.72780000  0.69360000  0.86310000  1
  H  H386  1  0.86310000  0.72780000  0.69360000  1
  H  H387  1  0.13690000  0.27220000  0.69360000  1
  H  H388  1  0.72780000  0.30640000  0.13690000  1
  H  H389  1  0.13690000  0.72780000  0.30640000  1
  H  H390  1  0.27220000  0.30640000  0.86310000  1
  H  H391  1  0.27220000  0.69360000  0.13690000  1
  H  H392  1  0.86310000  0.27220000  0.30640000  1
  H  H393  1  0.30640000  0.13690000  0.72780000  1
  H  H394  1  0.69360000  0.13690000  0.27220000  1
  H  H395  1  0.30640000  0.86310000  0.27220000  1
  H  H396  1  0.19360000  0.36310000  0.22780000  1
  H  H397  1  0.22780000  0.19360000  0.36310000  1
  H  H398  1  0.36310000  0.22780000  0.19360000  1
  H  H399  1  0.63690000  0.77220000  0.19360000  1
  H  H400  1  0.22780000  0.80640000  0.63690000  1
  H  H401  1  0.63690000  0.22780000  0.80640000  1
  H  H402  1  0.77220000  0.80640000  0.36310000  1
  H  H403  1  0.77220000  0.19360000  0.63690000  1
  H  H404  1  0.36310000  0.77220000  0.80640000  1
  H  H405  1  0.80640000  0.63690000  0.22780000  1
  H  H406  1  0.19360000  0.63690000  0.77220000  1
  H  H407  1  0.80640000  0.36310000  0.77220000  1
  C  C408  1  0.31522000  0.13382000  0.15162000  1
  C  C409  1  0.15162000  0.31522000  0.13382000  1
  C  C410  1  0.13382000  0.15162000  0.31522000  1
  C  C411  1  0.86618000  0.84838000  0.31522000  1
  C  C412  1  0.15162000  0.68478000  0.86618000  1
  C  C413  1  0.86618000  0.15162000  0.68478000  1
  C  C414  1  0.84838000  0.68478000  0.13382000  1
  C  C415  1  0.84838000  0.31522000  0.86618000  1
  C  C416  1  0.13382000  0.84838000  0.68478000  1
  C  C417  1  0.68478000  0.86618000  0.15162000  1
  C  C418  1  0.31522000  0.86618000  0.84838000  1
  C  C419  1  0.68478000  0.13382000  0.84838000  1
  C  C420  1  0.81522000  0.63382000  0.65162000  1
  C  C421  1  0.65162000  0.81522000  0.63382000  1
  C  C422  1  0.63382000  0.65162000  0.81522000  1
  C  C423  1  0.36618000  0.34838000  0.81522000  1
  C  C424  1  0.65162000  0.18478000  0.36618000  1
  C  C425  1  0.36618000  0.65162000  0.18478000  1
  C  C426  1  0.34838000  0.18478000  0.63382000  1
  C  C427  1  0.34838000  0.81522000  0.36618000  1
  C  C428  1  0.63382000  0.34838000  0.18478000  1
  C  C429  1  0.18478000  0.36618000  0.65162000  1
  C  C430  1  0.81522000  0.36618000  0.34838000  1
  C  C431  1  0.18478000  0.63382000  0.34838000  1
  C  C432  1  0.68478000  0.86618000  0.84838000  1
  C  C433  1  0.84838000  0.68478000  0.86618000  1
  C  C434  1  0.86618000  0.84838000  0.68478000  1
  C  C435  1  0.13382000  0.15162000  0.68478000  1
  C  C436  1  0.84838000  0.31522000  0.13382000  1
  C  C437  1  0.13382000  0.84838000  0.31522000  1
  C  C438  1  0.15162000  0.31522000  0.86618000  1
  C  C439  1  0.15162000  0.68478000  0.13382000  1
  C  C440  1  0.86618000  0.15162000  0.31522000  1
  C  C441  1  0.31522000  0.13382000  0.84838000  1
  C  C442  1  0.68478000  0.13382000  0.15162000  1
  C  C443  1  0.31522000  0.86618000  0.15162000  1
  C  C444  1  0.18478000  0.36618000  0.34838000  1
  C  C445  1  0.34838000  0.18478000  0.36618000  1
  C  C446  1  0.36618000  0.34838000  0.18478000  1
  C  C447  1  0.63382000  0.65162000  0.18478000  1
  C  C448  1  0.34838000  0.81522000  0.63382000  1
  C  C449  1  0.63382000  0.34838000  0.81522000  1
  C  C450  1  0.65162000  0.81522000  0.36618000  1
  C  C451  1  0.65162000  0.18478000  0.63382000  1
  C  C452  1  0.36618000  0.65162000  0.81522000  1
  C  C453  1  0.81522000  0.63382000  0.34838000  1
  C  C454  1  0.18478000  0.63382000  0.65162000  1
  C  C455  1  0.81522000  0.36618000  0.65162000  1
  H  H456  1  0.29960000  0.14400000  0.12250000  1
  H  H457  1  0.12250000  0.29960000  0.14400000  1
  H  H458  1  0.14400000  0.12250000  0.29960000  1
  H  H459  1  0.85600000  0.87750000  0.29960000  1
  H  H460  1  0.12250000  0.70040000  0.85600000  1
  H  H461  1  0.85600000  0.12250000  0.70040000  1
  H  H462  1  0.87750000  0.70040000  0.14400000  1
  H  H463  1  0.87750000  0.29960000  0.85600000  1
  H  H464  1  0.14400000  0.87750000  0.70040000  1
  H  H465  1  0.70040000  0.85600000  0.12250000  1
  H  H466  1  0.29960000  0.85600000  0.87750000  1
  H  H467  1  0.70040000  0.14400000  0.87750000  1
  H  H468  1  0.79960000  0.64400000  0.62250000  1
  H  H469  1  0.62250000  0.79960000  0.64400000  1
  H  H470  1  0.64400000  0.62250000  0.79960000  1
  H  H471  1  0.35600000  0.37750000  0.79960000  1
  H  H472  1  0.62250000  0.20040000  0.35600000  1
  H  H473  1  0.35600000  0.62250000  0.20040000  1
  H  H474  1  0.37750000  0.20040000  0.64400000  1
  H  H475  1  0.37750000  0.79960000  0.35600000  1
  H  H476  1  0.64400000  0.37750000  0.20040000  1
  H  H477  1  0.20040000  0.35600000  0.62250000  1
  H  H478  1  0.79960000  0.35600000  0.37750000  1
  H  H479  1  0.20040000  0.64400000  0.37750000  1
  H  H480  1  0.70040000  0.85600000  0.87750000  1
  H  H481  1  0.87750000  0.70040000  0.85600000  1
  H  H482  1  0.85600000  0.87750000  0.70040000  1
  H  H483  1  0.14400000  0.12250000  0.70040000  1
  H  H484  1  0.87750000  0.29960000  0.14400000  1
  H  H485  1  0.14400000  0.87750000  0.29960000  1
  H  H486  1  0.12250000  0.29960000  0.85600000  1
  H  H487  1  0.12250000  0.70040000  0.14400000  1
  H  H488  1  0.85600000  0.12250000  0.29960000  1
  H  H489  1  0.29960000  0.14400000  0.87750000  1
  H  H490  1  0.70040000  0.14400000  0.12250000  1
  H  H491  1  0.29960000  0.85600000  0.12250000  1
  H  H492  1  0.20040000  0.35600000  0.37750000  1
  H  H493  1  0.37750000  0.20040000  0.35600000  1
  H  H494  1  0.35600000  0.37750000  0.20040000  1
  H  H495  1  0.64400000  0.62250000  0.20040000  1
  H  H496  1  0.37750000  0.79960000  0.64400000  1
  H  H497  1  0.64400000  0.37750000  0.79960000  1
  H  H498  1  0.62250000  0.79960000  0.35600000  1
  H  H499  1  0.62250000  0.20040000  0.64400000  1
  H  H500  1  0.35600000  0.62250000  0.79960000  1
  H  H501  1  0.79960000  0.64400000  0.37750000  1
  H  H502  1  0.20040000  0.64400000  0.62250000  1
  H  H503  1  0.79960000  0.35600000  0.62250000  1
  C  C504  1  0.36412000  0.10422000  0.23762000  1
  C  C505  1  0.23762000  0.36412000  0.10422000  1
  C  C506  1  0.10422000  0.23762000  0.36412000  1
  C  C507  1  0.89578000  0.76238000  0.36412000  1
  C  C508  1  0.23762000  0.63588000  0.89578000  1
  C  C509  1  0.89578000  0.23762000  0.63588000  1
  C  C510  1  0.76238000  0.63588000  0.10422000  1
  C  C511  1  0.76238000  0.36412000  0.89578000  1
  C  C512  1  0.10422000  0.76238000  0.63588000  1
  C  C513  1  0.63588000  0.89578000  0.23762000  1
  C  C514  1  0.36412000  0.89578000  0.76238000  1
  C  C515  1  0.63588000  0.10422000  0.76238000  1
  C  C516  1  0.86412000  0.60422000  0.73762000  1
  C  C517  1  0.73762000  0.86412000  0.60422000  1
  C  C518  1  0.60422000  0.73762000  0.86412000  1
  C  C519  1  0.39578000  0.26238000  0.86412000  1
  C  C520  1  0.73762000  0.13588000  0.39578000  1
  C  C521  1  0.39578000  0.73762000  0.13588000  1
  C  C522  1  0.26238000  0.13588000  0.60422000  1
  C  C523  1  0.26238000  0.86412000  0.39578000  1
  C  C524  1  0.60422000  0.26238000  0.13588000  1
  C  C525  1  0.13588000  0.39578000  0.73762000  1
  C  C526  1  0.86412000  0.39578000  0.26238000  1
  C  C527  1  0.13588000  0.60422000  0.26238000  1
  C  C528  1  0.63588000  0.89578000  0.76238000  1
  C  C529  1  0.76238000  0.63588000  0.89578000  1
  C  C530  1  0.89578000  0.76238000  0.63588000  1
  C  C531  1  0.10422000  0.23762000  0.63588000  1
  C  C532  1  0.76238000  0.36412000  0.10422000  1
  C  C533  1  0.10422000  0.76238000  0.36412000  1
  C  C534  1  0.23762000  0.36412000  0.89578000  1
  C  C535  1  0.23762000  0.63588000  0.10422000  1
  C  C536  1  0.89578000  0.23762000  0.36412000  1
  C  C537  1  0.36412000  0.10422000  0.76238000  1
  C  C538  1  0.63588000  0.10422000  0.23762000  1
  C  C539  1  0.36412000  0.89578000  0.23762000  1
  C  C540  1  0.13588000  0.39578000  0.26238000  1
  C  C541  1  0.26238000  0.13588000  0.39578000  1
  C  C542  1  0.39578000  0.26238000  0.13588000  1
  C  C543  1  0.60422000  0.73762000  0.13588000  1
  C  C544  1  0.26238000  0.86412000  0.60422000  1
  C  C545  1  0.60422000  0.26238000  0.86412000  1
  C  C546  1  0.73762000  0.86412000  0.39578000  1
  C  C547  1  0.73762000  0.13588000  0.60422000  1
  C  C548  1  0.39578000  0.73762000  0.86412000  1
  C  C549  1  0.86412000  0.60422000  0.26238000  1
  C  C550  1  0.13588000  0.60422000  0.73762000  1
  C  C551  1  0.86412000  0.39578000  0.73762000  1
  H  H552  1  0.38060000  0.09490000  0.26650000  1
  H  H553  1  0.26650000  0.38060000  0.09490000  1
  H  H554  1  0.09490000  0.26650000  0.38060000  1
  H  H555  1  0.90510000  0.73350000  0.38060000  1
  H  H556  1  0.26650000  0.61940000  0.90510000  1
  H  H557  1  0.90510000  0.26650000  0.61940000  1
  H  H558  1  0.73350000  0.61940000  0.09490000  1
  H  H559  1  0.73350000  0.38060000  0.90510000  1
  H  H560  1  0.09490000  0.73350000  0.61940000  1
  H  H561  1  0.61940000  0.90510000  0.26650000  1
  H  H562  1  0.38060000  0.90510000  0.73350000  1
  H  H563  1  0.61940000  0.09490000  0.73350000  1
  H  H564  1  0.88060000  0.59490000  0.76650000  1
  H  H565  1  0.76650000  0.88060000  0.59490000  1
  H  H566  1  0.59490000  0.76650000  0.88060000  1
  H  H567  1  0.40510000  0.23350000  0.88060000  1
  H  H568  1  0.76650000  0.11940000  0.40510000  1
  H  H569  1  0.40510000  0.76650000  0.11940000  1
  H  H570  1  0.23350000  0.11940000  0.59490000  1
  H  H571  1  0.23350000  0.88060000  0.40510000  1
  H  H572  1  0.59490000  0.23350000  0.11940000  1
  H  H573  1  0.11940000  0.40510000  0.76650000  1
  H  H574  1  0.88060000  0.40510000  0.23350000  1
  H  H575  1  0.11940000  0.59490000  0.23350000  1
  H  H576  1  0.61940000  0.90510000  0.73350000  1
  H  H577  1  0.73350000  0.61940000  0.90510000  1
  H  H578  1  0.90510000  0.73350000  0.61940000  1
  H  H579  1  0.09490000  0.26650000  0.61940000  1
  H  H580  1  0.73350000  0.38060000  0.09490000  1
  H  H581  1  0.09490000  0.73350000  0.38060000  1
  H  H582  1  0.26650000  0.38060000  0.90510000  1
  H  H583  1  0.26650000  0.61940000  0.09490000  1
  H  H584  1  0.90510000  0.26650000  0.38060000  1
  H  H585  1  0.38060000  0.09490000  0.73350000  1
  H  H586  1  0.61940000  0.09490000  0.26650000  1
  H  H587  1  0.38060000  0.90510000  0.26650000  1
  H  H588  1  0.11940000  0.40510000  0.23350000  1
  H  H589  1  0.23350000  0.11940000  0.40510000  1
  H  H590  1  0.40510000  0.23350000  0.11940000  1
  H  H591  1  0.59490000  0.76650000  0.11940000  1
  H  H592  1  0.23350000  0.88060000  0.59490000  1
  H  H593  1  0.59490000  0.23350000  0.88060000  1
  H  H594  1  0.76650000  0.88060000  0.40510000  1
  H  H595  1  0.76650000  0.11940000  0.59490000  1
  H  H596  1  0.40510000  0.76650000  0.88060000  1
  H  H597  1  0.88060000  0.59490000  0.23350000  1
  H  H598  1  0.11940000  0.59490000  0.76650000  1
  H  H599  1  0.88060000  0.40510000  0.76650000  1
  C  C600  1  0.21662000  0.16962000  0.24152000  1
  C  C601  1  0.24152000  0.21662000  0.16962000  1
  C  C602  1  0.16962000  0.24152000  0.21662000  1
  C  C603  1  0.83038000  0.75848000  0.21662000  1
  C  C604  1  0.24152000  0.78338000  0.83038000  1
  C  C605  1  0.83038000  0.24152000  0.78338000  1
  C  C606  1  0.75848000  0.78338000  0.16962000  1
  C  C607  1  0.75848000  0.21662000  0.83038000  1
  C  C608  1  0.16962000  0.75848000  0.78338000  1
  C  C609  1  0.78338000  0.83038000  0.24152000  1
  C  C610  1  0.21662000  0.83038000  0.75848000  1
  C  C611  1  0.78338000  0.16962000  0.75848000  1
  C  C612  1  0.71662000  0.66962000  0.74152000  1
  C  C613  1  0.74152000  0.71662000  0.66962000  1
  C  C614  1  0.66962000  0.74152000  0.71662000  1
  C  C615  1  0.33038000  0.25848000  0.71662000  1
  C  C616  1  0.74152000  0.28338000  0.33038000  1
  C  C617  1  0.33038000  0.74152000  0.28338000  1
  C  C618  1  0.25848000  0.28338000  0.66962000  1
  C  C619  1  0.25848000  0.71662000  0.33038000  1
  C  C620  1  0.66962000  0.25848000  0.28338000  1
  C  C621  1  0.28338000  0.33038000  0.74152000  1
  C  C622  1  0.71662000  0.33038000  0.25848000  1
  C  C623  1  0.28338000  0.66962000  0.25848000  1
  C  C624  1  0.78338000  0.83038000  0.75848000  1
  C  C625  1  0.75848000  0.78338000  0.83038000  1
  C  C626  1  0.83038000  0.75848000  0.78338000  1
  C  C627  1  0.16962000  0.24152000  0.78338000  1
  C  C628  1  0.75848000  0.21662000  0.16962000  1
  C  C629  1  0.16962000  0.75848000  0.21662000  1
  C  C630  1  0.24152000  0.21662000  0.83038000  1
  C  C631  1  0.24152000  0.78338000  0.16962000  1
  C  C632  1  0.83038000  0.24152000  0.21662000  1
  C  C633  1  0.21662000  0.16962000  0.75848000  1
  C  C634  1  0.78338000  0.16962000  0.24152000  1
  C  C635  1  0.21662000  0.83038000  0.24152000  1
  C  C636  1  0.28338000  0.33038000  0.25848000  1
  C  C637  1  0.25848000  0.28338000  0.33038000  1
  C  C638  1  0.33038000  0.25848000  0.28338000  1
  C  C639  1  0.66962000  0.74152000  0.28338000  1
  C  C640  1  0.25848000  0.71662000  0.66962000  1
  C  C641  1  0.66962000  0.25848000  0.71662000  1
  C  C642  1  0.74152000  0.71662000  0.33038000  1
  C  C643  1  0.74152000  0.28338000  0.66962000  1
  C  C644  1  0.33038000  0.74152000  0.71662000  1
  C  C645  1  0.71662000  0.66962000  0.25848000  1
  C  C646  1  0.28338000  0.66962000  0.74152000  1
  C  C647  1  0.71662000  0.33038000  0.74152000  1
  H  H648  1  0.22090000  0.14260000  0.26250000  1
  H  H649  1  0.26250000  0.22090000  0.14260000  1
  H  H650  1  0.14260000  0.26250000  0.22090000  1
  H  H651  1  0.85740000  0.73750000  0.22090000  1
  H  H652  1  0.26250000  0.77910000  0.85740000  1
  H  H653  1  0.85740000  0.26250000  0.77910000  1
  H  H654  1  0.73750000  0.77910000  0.14260000  1
  H  H655  1  0.73750000  0.22090000  0.85740000  1
  H  H656  1  0.14260000  0.73750000  0.77910000  1
  H  H657  1  0.77910000  0.85740000  0.26250000  1
  H  H658  1  0.22090000  0.85740000  0.73750000  1
  H  H659  1  0.77910000  0.14260000  0.73750000  1
  H  H660  1  0.72090000  0.64260000  0.76250000  1
  H  H661  1  0.76250000  0.72090000  0.64260000  1
  H  H662  1  0.64260000  0.76250000  0.72090000  1
  H  H663  1  0.35740000  0.23750000  0.72090000  1
  H  H664  1  0.76250000  0.27910000  0.35740000  1
  H  H665  1  0.35740000  0.76250000  0.27910000  1
  H  H666  1  0.23750000  0.27910000  0.64260000  1
  H  H667  1  0.23750000  0.72090000  0.35740000  1
  H  H668  1  0.64260000  0.23750000  0.27910000  1
  H  H669  1  0.27910000  0.35740000  0.76250000  1
  H  H670  1  0.72090000  0.35740000  0.23750000  1
  H  H671  1  0.27910000  0.64260000  0.23750000  1
  H  H672  1  0.77910000  0.85740000  0.73750000  1
  H  H673  1  0.73750000  0.77910000  0.85740000  1
  H  H674  1  0.85740000  0.73750000  0.77910000  1
  H  H675  1  0.14260000  0.26250000  0.77910000  1
  H  H676  1  0.73750000  0.22090000  0.14260000  1
  H  H677  1  0.14260000  0.73750000  0.22090000  1
  H  H678  1  0.26250000  0.22090000  0.85740000  1
  H  H679  1  0.26250000  0.77910000  0.14260000  1
  H  H680  1  0.85740000  0.26250000  0.22090000  1
  H  H681  1  0.22090000  0.14260000  0.73750000  1
  H  H682  1  0.77910000  0.14260000  0.26250000  1
  H  H683  1  0.22090000  0.85740000  0.26250000  1
  H  H684  1  0.27910000  0.35740000  0.23750000  1
  H  H685  1  0.23750000  0.27910000  0.35740000  1
  H  H686  1  0.35740000  0.23750000  0.27910000  1
  H  H687  1  0.64260000  0.76250000  0.27910000  1
  H  H688  1  0.23750000  0.72090000  0.64260000  1
  H  H689  1  0.64260000  0.23750000  0.72090000  1
  H  H690  1  0.76250000  0.72090000  0.35740000  1
  H  H691  1  0.76250000  0.27910000  0.64260000  1
  H  H692  1  0.35740000  0.76250000  0.72090000  1
  H  H693  1  0.72090000  0.64260000  0.23750000  1
  H  H694  1  0.27910000  0.64260000  0.76250000  1
  H  H695  1  0.72090000  0.35740000  0.76250000  1
  C  C696  1  0.38442000  0.09242000  0.19232000  1
  C  C697  1  0.19232000  0.38442000  0.09242000  1
  C  C698  1  0.09242000  0.19232000  0.38442000  1
  C  C699  1  0.90758000  0.80768000  0.38442000  1
  C  C700  1  0.19232000  0.61558000  0.90758000  1
  C  C701  1  0.90758000  0.19232000  0.61558000  1
  C  C702  1  0.80768000  0.61558000  0.09242000  1
  C  C703  1  0.80768000  0.38442000  0.90758000  1
  C  C704  1  0.09242000  0.80768000  0.61558000  1
  C  C705  1  0.61558000  0.90758000  0.19232000  1
  C  C706  1  0.38442000  0.90758000  0.80768000  1
  C  C707  1  0.61558000  0.09242000  0.80768000  1
  C  C708  1  0.88442000  0.59242000  0.69232000  1
  C  C709  1  0.69232000  0.88442000  0.59242000  1
  C  C710  1  0.59242000  0.69232000  0.88442000  1
  C  C711  1  0.40758000  0.30768000  0.88442000  1
  C  C712  1  0.69232000  0.11558000  0.40758000  1
  C  C713  1  0.40758000  0.69232000  0.11558000  1
  C  C714  1  0.30768000  0.11558000  0.59242000  1
  C  C715  1  0.30768000  0.88442000  0.40758000  1
  C  C716  1  0.59242000  0.30768000  0.11558000  1
  C  C717  1  0.11558000  0.40758000  0.69232000  1
  C  C718  1  0.88442000  0.40758000  0.30768000  1
  C  C719  1  0.11558000  0.59242000  0.30768000  1
  C  C720  1  0.61558000  0.90758000  0.80768000  1
  C  C721  1  0.80768000  0.61558000  0.90758000  1
  C  C722  1  0.90758000  0.80768000  0.61558000  1
  C  C723  1  0.09242000  0.19232000  0.61558000  1
  C  C724  1  0.80768000  0.38442000  0.09242000  1
  C  C725  1  0.09242000  0.80768000  0.38442000  1
  C  C726  1  0.19232000  0.38442000  0.90758000  1
  C  C727  1  0.19232000  0.61558000  0.09242000  1
  C  C728  1  0.90758000  0.19232000  0.38442000  1
  C  C729  1  0.38442000  0.09242000  0.80768000  1
  C  C730  1  0.61558000  0.09242000  0.19232000  1
  C  C731  1  0.38442000  0.90758000  0.19232000  1
  C  C732  1  0.11558000  0.40758000  0.30768000  1
  C  C733  1  0.30768000  0.11558000  0.40758000  1
  C  C734  1  0.40758000  0.30768000  0.11558000  1
  C  C735  1  0.59242000  0.69232000  0.11558000  1
  C  C736  1  0.30768000  0.88442000  0.59242000  1
  C  C737  1  0.59242000  0.30768000  0.88442000  1
  C  C738  1  0.69232000  0.88442000  0.40758000  1
  C  C739  1  0.69232000  0.11558000  0.59242000  1
  C  C740  1  0.40758000  0.69232000  0.88442000  1
  C  C741  1  0.88442000  0.59242000  0.30768000  1
  C  C742  1  0.11558000  0.59242000  0.69232000  1
  C  C743  1  0.88442000  0.40758000  0.69232000  1
  C  C744  1  0.24952000  0.17712000  0.20232000  1
  C  C745  1  0.20232000  0.24952000  0.17712000  1
  C  C746  1  0.17712000  0.20232000  0.24952000  1
  C  C747  1  0.82288000  0.79768000  0.24952000  1
  C  C748  1  0.20232000  0.75048000  0.82288000  1
  C  C749  1  0.82288000  0.20232000  0.75048000  1
  C  C750  1  0.79768000  0.75048000  0.17712000  1
  C  C751  1  0.79768000  0.24952000  0.82288000  1
  C  C752  1  0.17712000  0.79768000  0.75048000  1
  C  C753  1  0.75048000  0.82288000  0.20232000  1
  C  C754  1  0.24952000  0.82288000  0.79768000  1
  C  C755  1  0.75048000  0.17712000  0.79768000  1
  C  C756  1  0.74952000  0.67712000  0.70232000  1
  C  C757  1  0.70232000  0.74952000  0.67712000  1
  C  C758  1  0.67712000  0.70232000  0.74952000  1
  C  C759  1  0.32288000  0.29768000  0.74952000  1
  C  C760  1  0.70232000  0.25048000  0.32288000  1
  C  C761  1  0.32288000  0.70232000  0.25048000  1
  C  C762  1  0.29768000  0.25048000  0.67712000  1
  C  C763  1  0.29768000  0.74952000  0.32288000  1
  C  C764  1  0.67712000  0.29768000  0.25048000  1
  C  C765  1  0.25048000  0.32288000  0.70232000  1
  C  C766  1  0.74952000  0.32288000  0.29768000  1
  C  C767  1  0.25048000  0.67712000  0.29768000  1
  C  C768  1  0.75048000  0.82288000  0.79768000  1
  C  C769  1  0.79768000  0.75048000  0.82288000  1
  C  C770  1  0.82288000  0.79768000  0.75048000  1
  C  C771  1  0.17712000  0.20232000  0.75048000  1
  C  C772  1  0.79768000  0.24952000  0.17712000  1
  C  C773  1  0.17712000  0.79768000  0.24952000  1
  C  C774  1  0.20232000  0.24952000  0.82288000  1
  C  C775  1  0.20232000  0.75048000  0.17712000  1
  C  C776  1  0.82288000  0.20232000  0.24952000  1
  C  C777  1  0.24952000  0.17712000  0.79768000  1
  C  C778  1  0.75048000  0.17712000  0.20232000  1
  C  C779  1  0.24952000  0.82288000  0.20232000  1
  C  C780  1  0.25048000  0.32288000  0.29768000  1
  C  C781  1  0.29768000  0.25048000  0.32288000  1
  C  C782  1  0.32288000  0.29768000  0.25048000  1
  C  C783  1  0.67712000  0.70232000  0.25048000  1
  C  C784  1  0.29768000  0.74952000  0.67712000  1
  C  C785  1  0.67712000  0.29768000  0.74952000  1
  C  C786  1  0.70232000  0.74952000  0.32288000  1
  C  C787  1  0.70232000  0.25048000  0.67712000  1
  C  C788  1  0.32288000  0.70232000  0.74952000  1
  C  C789  1  0.74952000  0.67712000  0.29768000  1
  C  C790  1  0.25048000  0.67712000  0.70232000  1
  C  C791  1  0.74952000  0.32288000  0.70232000  1
