# generated using pymatgen
data_Zn2H38C46O11
_symmetry_space_group_name_H-M   'P 1'
_cell_length_a   78.64330000
_cell_length_b   78.64330000
_cell_length_c   6.81560000
_cell_angle_alpha   90.00000000
_cell_angle_beta   90.00000000
_cell_angle_gamma   120.00000000
_symmetry_Int_Tables_number   1
_chemical_formula_structural   Zn2H38C46O11
_chemical_formula_sum   'Zn18 H342 C414 O99'
_cell_volume   36505.49013091
_cell_formula_units_Z   9
loop_
 _symmetry_equiv_pos_site_id
 _symmetry_equiv_pos_as_xyz
  1  'x, y, z'
loop_
 _atom_site_type_symbol
 _atom_site_label
 _atom_site_symmetry_multiplicity
 _atom_site_fract_x
 _atom_site_fract_y
 _atom_site_fract_z
 _atom_site_occupancy
  H  H0  1  0.33154000  0.16875000  0.72482000  1
  H  H1  1  0.83125000  0.16279000  0.72482000  1
  H  H2  1  0.83721000  0.66846000  0.72482000  1
  H  H3  1  0.00000000  0.50208333  0.05815333  1
  H  H4  1  0.49791667  0.49612333  0.05815333  1
  H  H5  1  0.50387667  0.00179333  0.05815333  1
  H  H6  1  0.66487333  0.83541667  0.39148667  1
  H  H7  1  0.16458333  0.82945667  0.39148667  1
  H  H8  1  0.17054333  0.33512667  0.39148667  1
  H  H9  1  0.34214000  0.18447000  0.52026000  1
  H  H10  1  0.81553000  0.15767000  0.52026000  1
  H  H11  1  0.84233000  0.65786000  0.52026000  1
  H  H12  1  0.00880667  0.51780333  0.85359333  1
  H  H13  1  0.48219667  0.49100333  0.85359333  1
  H  H14  1  0.50899667  0.99119333  0.85359333  1
  H  H15  1  0.67547333  0.85113667  0.18692667  1
  H  H16  1  0.14886333  0.82433667  0.18692667  1
  H  H17  1  0.17566333  0.32452667  0.18692667  1
  H  H18  1  0.31658000  0.17370000  0.56627000  1
  H  H19  1  0.82630000  0.14288000  0.56627000  1
  H  H20  1  0.85712000  0.68342000  0.56627000  1
  H  H22  1  0.49296667  0.47621333  0.89960333  1
  H  H23  1  0.52378667  0.01675333  0.89960333  1
  H  H24  1  0.64991333  0.84036667  0.23293667  1
  H  H25  1  0.15963333  0.80954667  0.23293667  1
  H  H26  1  0.19045333  0.35008667  0.23293667  1
  H  H27  1  0.32489000  0.10262000  0.08241000  1
  H  H28  1  0.89738000  0.22227000  0.08241000  1
  H  H29  1  0.77773000  0.67511000  0.08241000  1
  H  H30  1  0.99155667  0.43595333  0.41574333  1
  H  H31  1  0.56404667  0.55560333  0.41574333  1
  H  H32  1  0.44439667  0.00844333  0.41574333  1
  H  H33  1  0.65822333  0.76928667  0.74907667  1
  H  H34  1  0.23071333  0.88893667  0.74907667  1
  H  H35  1  0.11106333  0.34177667  0.74907667  1
  H  H36  1  0.29950000  0.09154000  0.14283000  1
  H  H37  1  0.90846000  0.20796000  0.14283000  1
  H  H38  1  0.79204000  0.70050000  0.14283000  1
  H  H39  1  0.96616667  0.42487333  0.47616333  1
  H  H40  1  0.57512667  0.54129333  0.47616333  1
  H  H41  1  0.45870667  0.03383333  0.47616333  1
  H  H42  1  0.63283333  0.75820667  0.80949667  1
  H  H43  1  0.24179333  0.87462667  0.80949667  1
  H  H44  1  0.12537333  0.36716667  0.80949667  1
  H  H45  1  0.30888000  0.10674000  0.93166000  1
  H  H46  1  0.89326000  0.20214000  0.93166000  1
  H  H47  1  0.79786000  0.69112000  0.93166000  1
  H  H48  1  0.97554667  0.44007333  0.26499333  1
  H  H49  1  0.55992667  0.53547333  0.26499333  1
  H  H50  1  0.46452667  0.02445333  0.26499333  1
  H  H51  1  0.64221333  0.77340667  0.59832667  1
  H  H52  1  0.22659333  0.86880667  0.59832667  1
  H  H53  1  0.13119333  0.35778667  0.59832667  1
  H  H54  1  0.36975000  0.12272000  0.46410000  1
  H  H55  1  0.87728000  0.24703000  0.46410000  1
  H  H56  1  0.75297000  0.63025000  0.46410000  1
  H  H57  1  0.03641667  0.45605333  0.79743333  1
  H  H58  1  0.54394667  0.58036333  0.79743333  1
  H  H59  1  0.41963667  0.96358333  0.79743333  1
  H  H60  1  0.70308333  0.78938667  0.13076667  1
  H  H61  1  0.21061333  0.91369667  0.13076667  1
  H  H62  1  0.08630333  0.29691667  0.13076667  1
  H  H63  1  0.35858000  0.13711000  0.43789000  1
  H  H64  1  0.86289000  0.22147000  0.43789000  1
  H  H65  1  0.77853000  0.64142000  0.43789000  1
  H  H66  1  0.02524667  0.47044333  0.77122333  1
  H  H67  1  0.52955667  0.55480333  0.77122333  1
  H  H68  1  0.44519667  0.97475333  0.77122333  1
  H  H69  1  0.69191333  0.80377667  0.10455667  1
  H  H70  1  0.19622333  0.88813667  0.10455667  1
  H  H71  1  0.11186333  0.30808667  0.10455667  1
  H  H72  1  0.36618000  0.13400000  0.67706000  1
  H  H73  1  0.86600000  0.23218000  0.67706000  1
  H  H74  1  0.76782000  0.63382000  0.67706000  1
  H  H75  1  0.03284667  0.46733333  0.01039333  1
  H  H76  1  0.53266667  0.56551333  0.01039333  1
  H  H77  1  0.43448667  0.96715333  0.01039333  1
  H  H78  1  0.69951333  0.80066667  0.34372667  1
  H  H79  1  0.19933333  0.89884667  0.34372667  1
  H  H80  1  0.10115333  0.30048667  0.34372667  1
  H  H81  1  0.28425000  0.05387000  0.84443000  1
  H  H82  1  0.94613000  0.23038000  0.84443000  1
  H  H83  1  0.76962000  0.71575000  0.84443000  1
  H  H84  1  0.95091667  0.38720333  0.17776333  1
  H  H85  1  0.61279667  0.56371333  0.17776333  1
  H  H86  1  0.43628667  0.04908333  0.17776333  1
  H  H87  1  0.61758333  0.72053667  0.51109667  1
  H  H88  1  0.27946333  0.89704667  0.51109667  1
  H  H89  1  0.10295333  0.38241667  0.51109667  1
  H  H90  1  0.27499000  0.05600000  0.61126000  1
  H  H91  1  0.94400000  0.21899000  0.61126000  1
  H  H92  1  0.78101000  0.72501000  0.61126000  1
  H  H93  1  0.94165667  0.38933333  0.94459333  1
  H  H94  1  0.61066667  0.55232333  0.94459333  1
  H  H95  1  0.44767667  0.05834333  0.94459333  1
  H  H96  1  0.60832333  0.72266667  0.27792667  1
  H  H97  1  0.27733333  0.88565667  0.27792667  1
  H  H98  1  0.11434333  0.39167667  0.27792667  1
  H  H99  1  0.28836000  0.04351000  0.62647000  1
  H  H100  1  0.95649000  0.24485000  0.62647000  1
  H  H101  1  0.75515000  0.71164000  0.62647000  1
  H  H102  1  0.95502667  0.37684333  0.95980333  1
  H  H103  1  0.62315667  0.57818333  0.95980333  1
  H  H104  1  0.42181667  0.04497333  0.95980333  1
  H  H105  1  0.62169333  0.71017667  0.29313667  1
  H  H106  1  0.28982333  0.91151667  0.29313667  1
  H  H107  1  0.08848333  0.37830667  0.29313667  1
  H  H108  1  0.31171000  0.13684000  0.97764000  1
  H  H109  1  0.86316000  0.17487000  0.97764000  1
  H  H110  1  0.82513000  0.68829000  0.97764000  1
  H  H111  1  0.97837667  0.47017333  0.31097333  1
  H  H112  1  0.52982667  0.50820333  0.31097333  1
  H  H113  1  0.49179667  0.02162333  0.31097333  1
  H  H114  1  0.64504333  0.80350667  0.64430667  1
  H  H115  1  0.19649333  0.84153667  0.64430667  1
  H  H116  1  0.15846333  0.35495667  0.64430667  1
  H  H117  1  0.30128000  0.18171000  0.75435000  1
  H  H118  1  0.81829000  0.11957000  0.75435000  1
  H  H119  1  0.88043000  0.69872000  0.75435000  1
  H  H120  1  0.96794667  0.51504333  0.08768333  1
  H  H121  1  0.48495667  0.45290333  0.08768333  1
  H  H122  1  0.54709667  0.03205333  0.08768333  1
  H  H123  1  0.63461333  0.84837667  0.42101667  1
  H  H124  1  0.15162333  0.78623667  0.42101667  1
  H  H125  1  0.21376333  0.36538667  0.42101667  1
  H  H126  1  0.29237000  0.08757000  0.48939000  1
  H  H127  1  0.91243000  0.20480000  0.48939000  1
  H  H128  1  0.79520000  0.70763000  0.48939000  1
  H  H129  1  0.95903667  0.42090333  0.82272333  1
  H  H130  1  0.57909667  0.53813333  0.82272333  1
  H  H131  1  0.46186667  0.04096333  0.82272333  1
  H  H132  1  0.62570333  0.75423667  0.15605667  1
  H  H133  1  0.24576333  0.87146667  0.15605667  1
  H  H134  1  0.12853333  0.37429667  0.15605667  1
  H  H135  1  0.35423000  0.09576000  0.73728000  1
  H  H136  1  0.90424000  0.25847000  0.73728000  1
  H  H137  1  0.74153000  0.64577000  0.73728000  1
  H  H138  1  0.02089667  0.42909333  0.07061333  1
  H  H139  1  0.57090667  0.59180333  0.07061333  1
  H  H140  1  0.40819667  0.97910333  0.07061333  1
  H  H141  1  0.68756333  0.76242667  0.40394667  1
  H  H142  1  0.23757333  0.92513667  0.40394667  1
  H  H143  1  0.07486333  0.31243667  0.40394667  1
  H  H144  1  0.32869000  0.25010000  0.17332000  1
  H  H145  1  0.74990000  0.07859000  0.17332000  1
  H  H146  1  0.92141000  0.67131000  0.17332000  1
  H  H147  1  0.00000000  0.58343333  0.50665333  1
  H  H148  1  0.41656667  0.41192333  0.50665333  1
  H  H149  1  0.58807667  0.00464333  0.50665333  1
  H  H150  1  0.66202333  0.91676667  0.83998667  1
  H  H151  1  0.08323333  0.74525667  0.83998667  1
  H  H152  1  0.25474333  0.33797667  0.83998667  1
  H  H153  1  0.33292000  0.27625000  0.96686000  1
  H  H154  1  0.72375000  0.05667000  0.96686000  1
  H  H155  1  0.94333000  0.66708000  0.96686000  1
  H  H156  1  0.00000000  0.60958333  0.30019333  1
  H  H157  1  0.39041667  0.39000333  0.30019333  1
  H  H158  1  0.60999667  0.00041333  0.30019333  1
  H  H159  1  0.66625333  0.94291667  0.63352667  1
  H  H160  1  0.05708333  0.72333667  0.63352667  1
  H  H161  1  0.27666333  0.33374667  0.63352667  1
  H  H162  1  0.32032000  0.27748000  0.67370000  1
  H  H163  1  0.72252000  0.04284000  0.67370000  1
  H  H164  1  0.95716000  0.67968000  0.67370000  1
  H  H165  1  0.98698667  0.61081333  0.00703333  1
  H  H166  1  0.38918667  0.37617333  0.00703333  1
  H  H167  1  0.62382667  0.01301333  0.00703333  1
  H  H168  1  0.65365333  0.94414667  0.34036667  1
  H  H169  1  0.05585333  0.70950667  0.34036667  1
  H  H170  1  0.29049333  0.34634667  0.34036667  1
  H  H171  1  0.33560000  0.05222000  0.61889000  1
  H  H172  1  0.94778000  0.28338000  0.61889000  1
  H  H173  1  0.71662000  0.66440000  0.61889000  1
  H  H174  1  0.00226667  0.38555333  0.95222333  1
  H  H175  1  0.61444667  0.61671333  0.95222333  1
  H  H176  1  0.38328667  0.00000000  0.95222333  1
  H  H177  1  0.66893333  0.71888667  0.28555667  1
  H  H178  1  0.28111333  0.95004667  0.28555667  1
  H  H179  1  0.04995333  0.33106667  0.28555667  1
  H  H180  1  0.31593000  0.04618000  0.31533000  1
  H  H181  1  0.95382000  0.26975000  0.31533000  1
  H  H182  1  0.73025000  0.68407000  0.31533000  1
  H  H183  1  0.98259667  0.37951333  0.64866333  1
  H  H184  1  0.62048667  0.60308333  0.64866333  1
  H  H185  1  0.39691667  0.01740333  0.64866333  1
  H  H186  1  0.64926333  0.71284667  0.98199667  1
  H  H187  1  0.28715333  0.93641667  0.98199667  1
  H  H188  1  0.06358333  0.35073667  0.98199667  1
  H  H189  1  0.31361000  0.06924000  0.10570000  1
  H  H190  1  0.93076000  0.24437000  0.10570000  1
  H  H191  1  0.75563000  0.68639000  0.10570000  1
  H  H192  1  0.98027667  0.40257333  0.43903333  1
  H  H193  1  0.59742667  0.57770333  0.43903333  1
  H  H194  1  0.42229667  0.01972333  0.43903333  1
  H  H195  1  0.64694333  0.73590667  0.77236667  1
  H  H196  1  0.26409333  0.91103667  0.77236667  1
  H  H197  1  0.08896333  0.35305667  0.77236667  1
  H  H198  1  0.30029000  0.23340000  0.52887000  1
  H  H199  1  0.76660000  0.06689000  0.52887000  1
  H  H200  1  0.93311000  0.69971000  0.52887000  1
  H  H201  1  0.96695667  0.56673333  0.86220333  1
  H  H202  1  0.43326667  0.40022333  0.86220333  1
  H  H203  1  0.59977667  0.03304333  0.86220333  1
  H  H204  1  0.63362333  0.90006667  0.19553667  1
  H  H205  1  0.09993333  0.73355667  0.19553667  1
  H  H206  1  0.26644333  0.36637667  0.19553667  1
  H  H207  1  0.35452000  0.23723000  0.90654000  1
  H  H208  1  0.76277000  0.11729000  0.90654000  1
  H  H209  1  0.88271000  0.64548000  0.90654000  1
  H  H210  1  0.02118667  0.57056333  0.23987333  1
  H  H211  1  0.42943667  0.45062333  0.23987333  1
  H  H212  1  0.54937667  0.97881333  0.23987333  1
  H  H213  1  0.68785333  0.90389667  0.57320667  1
  H  H214  1  0.09610333  0.78395667  0.57320667  1
  H  H215  1  0.21604333  0.31214667  0.57320667  1
  H  H216  1  0.33060000  0.13949000  0.67341000  1
  H  H217  1  0.86051000  0.19111000  0.67341000  1
  H  H218  1  0.80889000  0.66940000  0.67341000  1
  H  H219  1  0.00000000  0.47282333  0.00674333  1
  H  H220  1  0.52717667  0.52444333  0.00674333  1
  H  H221  1  0.47555667  0.00273333  0.00674333  1
  H  H222  1  0.66393333  0.80615667  0.34007667  1
  H  H223  1  0.19384333  0.85777667  0.34007667  1
  H  H224  1  0.14222333  0.33606667  0.34007667  1
  H  H225  1  0.34221000  0.19078000  0.32631000  1
  H  H226  1  0.80922000  0.15143000  0.32631000  1
  H  H227  1  0.84857000  0.65779000  0.32631000  1
  H  H228  1  0.00887667  0.52411333  0.65964333  1
  H  H229  1  0.47588667  0.48476333  0.65964333  1
  H  H230  1  0.51523667  0.99112333  0.65964333  1
  H  H231  1  0.67554333  0.85744667  0.99297667  1
  H  H232  1  0.14255333  0.81809667  0.99297667  1
  H  H233  1  0.18190333  0.32445667  0.99297667  1
  H  H234  1  0.35896000  0.28288000  0.81248000  1
  H  H235  1  0.71712000  0.07608000  0.81248000  1
  H  H236  1  0.92392000  0.64104000  0.81248000  1
  H  H237  1  0.02562667  0.61621333  0.14581333  1
  H  H238  1  0.38378667  0.40941333  0.14581333  1
  H  H239  1  0.59058667  0.97437333  0.14581333  1
  H  H240  1  0.69229333  0.94954667  0.47914667  1
  H  H241  1  0.05045333  0.74274667  0.47914667  1
  H  H242  1  0.25725333  0.30770667  0.47914667  1
  H  H243  1  0.37163000  0.27091000  0.88859000  1
  H  H244  1  0.72909000  0.10072000  0.88859000  1
  H  H245  1  0.89928000  0.62837000  0.88859000  1
  H  H246  1  0.03829667  0.60424333  0.22192333  1
  H  H247  1  0.39575667  0.43405333  0.22192333  1
  H  H248  1  0.56594667  0.96170333  0.22192333  1
  H  H249  1  0.70496333  0.93757667  0.55525667  1
  H  H250  1  0.06242333  0.76738667  0.55525667  1
  H  H251  1  0.23261333  0.29503667  0.55525667  1
  H  H252  1  0.37282000  0.27765000  0.63893000  1
  H  H253  1  0.72235000  0.09517000  0.63893000  1
  H  H254  1  0.90483000  0.62718000  0.63893000  1
  H  H255  1  0.03948667  0.61098333  0.97226333  1
  H  H256  1  0.38901667  0.42850333  0.97226333  1
  H  H257  1  0.57149667  0.96051333  0.97226333  1
  H  H258  1  0.70615333  0.94431667  0.30559667  1
  H  H259  1  0.05568333  0.76183667  0.30559667  1
  H  H260  1  0.23816333  0.29384667  0.30559667  1
  H  H261  1  0.28729000  0.18930000  0.64940000  1
  H  H262  1  0.81070000  0.09799000  0.64940000  1
  H  H263  1  0.90201000  0.71271000  0.64940000  1
  H  H264  1  0.95395667  0.52263333  0.98273333  1
  H  H265  1  0.47736667  0.43132333  0.98273333  1
  H  H266  1  0.56867667  0.04604333  0.98273333  1
  H  H267  1  0.62062333  0.85596667  0.31606667  1
  H  H268  1  0.14403333  0.76465667  0.31606667  1
  H  H269  1  0.23534333  0.37937667  0.31606667  1
  H  H270  1  0.28476000  0.19587000  0.89559000  1
  H  H271  1  0.80413000  0.08889000  0.89559000  1
  H  H272  1  0.91111000  0.71524000  0.89559000  1
  H  H273  1  0.95142667  0.52920333  0.22892333  1
  H  H274  1  0.47079667  0.42222333  0.22892333  1
  H  H275  1  0.57777667  0.04857333  0.22892333  1
  H  H276  1  0.61809333  0.86253667  0.56225667  1
  H  H277  1  0.13746333  0.75555667  0.56225667  1
  H  H278  1  0.24444333  0.38190667  0.56225667  1
  H  H279  1  0.27758000  0.20483000  0.69396000  1
  H  H280  1  0.79517000  0.07275000  0.69396000  1
  H  H281  1  0.92725000  0.72242000  0.69396000  1
  H  H282  1  0.94424667  0.53816333  0.02729333  1
  H  H283  1  0.46183667  0.40608333  0.02729333  1
  H  H284  1  0.59391667  0.05575333  0.02729333  1
  H  H285  1  0.61091333  0.87149667  0.36062667  1
  H  H286  1  0.12850333  0.73941667  0.36062667  1
  H  H287  1  0.26058333  0.38908667  0.36062667  1
  H  H288  1  0.34548000  0.22363000  0.36321000  1
  H  H289  1  0.77637000  0.12185000  0.36321000  1
  H  H290  1  0.87815000  0.65452000  0.36321000  1
  H  H291  1  0.01214667  0.55696333  0.69654333  1
  H  H292  1  0.44303667  0.45518333  0.69654333  1
  H  H293  1  0.54481667  0.98785333  0.69654333  1
  H  H294  1  0.67881333  0.89029667  0.02987667  1
  H  H295  1  0.10970333  0.78851667  0.02987667  1
  H  H296  1  0.21148333  0.32118667  0.02987667  1
  H  H297  1  0.36253000  0.22839000  0.16638000  1
  H  H298  1  0.77161000  0.13414000  0.16638000  1
  H  H299  1  0.86586000  0.63747000  0.16638000  1
  H  H300  1  0.02919667  0.56172333  0.49971333  1
  H  H301  1  0.43827667  0.46747333  0.49971333  1
  H  H302  1  0.53252667  0.97080333  0.49971333  1
  H  H303  1  0.69586333  0.89505667  0.83304667  1
  H  H304  1  0.10494333  0.80080667  0.83304667  1
  H  H305  1  0.19919333  0.30413667  0.83304667  1
  H  H306  1  0.34471000  0.23587000  0.14858000  1
  H  H307  1  0.76413000  0.10884000  0.14858000  1
  H  H308  1  0.89116000  0.65529000  0.14858000  1
  H  H309  1  0.01137667  0.56920333  0.48191333  1
  H  H310  1  0.43079667  0.44217333  0.48191333  1
  H  H311  1  0.55782667  0.98862333  0.48191333  1
  H  H312  1  0.67804333  0.90253667  0.81524667  1
  H  H313  1  0.09746333  0.77550667  0.81524667  1
  H  H314  1  0.22449333  0.32195667  0.81524667  1
  H  H315  1  0.30013000  0.14022000  0.85104000  1
  H  H316  1  0.85978000  0.15991000  0.85104000  1
  H  H317  1  0.84009000  0.69987000  0.85104000  1
  H  H318  1  0.96679667  0.47355333  0.18437333  1
  H  H319  1  0.52644667  0.49324333  0.18437333  1
  H  H320  1  0.50675667  0.03320333  0.18437333  1
  H  H321  1  0.63346333  0.80688667  0.51770667  1
  H  H322  1  0.19311333  0.82657667  0.51770667  1
  H  H323  1  0.17342333  0.36653667  0.51770667  1
  H  H324  1  0.28356000  0.13903000  0.04085000  1
  H  H325  1  0.86097000  0.14453000  0.04085000  1
  H  H326  1  0.85547000  0.71644000  0.04085000  1
  H  H327  1  0.95022667  0.47236333  0.37418333  1
  H  H328  1  0.52763667  0.47786333  0.37418333  1
  H  H329  1  0.52213667  0.04977333  0.37418333  1
  H  H330  1  0.61689333  0.80569667  0.70751667  1
  H  H331  1  0.19430333  0.81119667  0.70751667  1
  H  H332  1  0.18880333  0.38310667  0.70751667  1
  H  H333  1  0.28337000  0.14833000  0.80257000  1
  H  H334  1  0.85167000  0.13504000  0.80257000  1
  H  H335  1  0.86496000  0.71663000  0.80257000  1
  H  H336  1  0.95003667  0.48166333  0.13590333  1
  H  H337  1  0.51833667  0.46837333  0.13590333  1
  H  H338  1  0.53162667  0.04996333  0.13590333  1
  H  H339  1  0.61670333  0.81499667  0.46923667  1
  H  H340  1  0.18500333  0.80170667  0.46923667  1
  H  H341  1  0.19829333  0.38329667  0.46923667  1
  C  C342  1  0.32906000  0.17128000  0.57027000  1
  C  C343  1  0.82872000  0.15778000  0.57027000  1
  C  C344  1  0.84222000  0.67094000  0.57027000  1
  C  C345  1  0.00000000  0.50461333  0.90360333  1
  C  C346  1  0.49538667  0.49111333  0.90360333  1
  C  C347  1  0.50888667  0.00427333  0.90360333  1
  C  C348  1  0.66239333  0.83794667  0.23693667  1
  C  C349  1  0.16205333  0.82444667  0.23693667  1
  C  C350  1  0.17555333  0.33760667  0.23693667  1
  C  C351  1  0.31218000  0.10467000  0.08486000  1
  C  C352  1  0.89533000  0.20751000  0.08486000  1
  C  C353  1  0.79249000  0.68782000  0.08486000  1
  C  C354  1  0.97884667  0.43800333  0.41819333  1
  C  C355  1  0.56199667  0.54084333  0.41819333  1
  C  C356  1  0.45915667  0.02115333  0.41819333  1
  C  C357  1  0.64551333  0.77133667  0.75152667  1
  C  C358  1  0.22866333  0.87417667  0.75152667  1
  C  C359  1  0.12582333  0.35448667  0.75152667  1
  C  C360  1  0.35979000  0.12672000  0.53564000  1
  C  C361  1  0.87328000  0.23307000  0.53564000  1
  C  C362  1  0.76693000  0.64021000  0.53564000  1
  C  C363  1  0.02645667  0.46005333  0.86897333  1
  C  C364  1  0.53994667  0.56640333  0.86897333  1
  C  C365  1  0.43359667  0.97354333  0.86897333  1
  C  C366  1  0.69312333  0.79338667  0.20230667  1
  C  C367  1  0.20661333  0.89973667  0.20230667  1
  C  C368  1  0.10026333  0.30687667  0.20230667  1
  C  C369  1  0.28731000  0.05589000  0.68470000  1
  C  C370  1  0.94411000  0.23142000  0.68470000  1
  C  C371  1  0.76858000  0.71269000  0.68470000  1
  C  C372  1  0.95397667  0.38922333  0.01803333  1
  C  C373  1  0.61077667  0.56475333  0.01803333  1
  C  C374  1  0.43524667  0.04602333  0.01803333  1
  C  C375  1  0.62064333  0.72255667  0.35136667  1
  C  C376  1  0.27744333  0.89808667  0.35136667  1
  C  C377  1  0.10191333  0.37935667  0.35136667  1
  C  C378  1  0.31556000  0.13728000  0.13030000  1
  C  C379  1  0.86272000  0.17828000  0.13030000  1
  C  C380  1  0.82172000  0.68444000  0.13030000  1
  C  C381  1  0.98222667  0.47061333  0.46363333  1
  C  C382  1  0.52938667  0.51161333  0.46363333  1
  C  C383  1  0.48838667  0.01777333  0.46363333  1
  C  C384  1  0.64889333  0.80394667  0.79696667  1
  C  C385  1  0.19605333  0.84494667  0.79696667  1
  C  C386  1  0.15505333  0.35110667  0.79696667  1
  C  C387  1  0.31977000  0.15360000  0.24238000  1
  C  C388  1  0.84640000  0.16617000  0.24238000  1
  C  C389  1  0.83383000  0.68023000  0.24238000  1
  C  C390  1  0.98643667  0.48693333  0.57571333  1
  C  C391  1  0.51306667  0.49950333  0.57571333  1
  C  C392  1  0.50049667  0.01356333  0.57571333  1
  C  C393  1  0.65310333  0.82026667  0.90904667  1
  C  C394  1  0.17973333  0.83283667  0.90904667  1
  C  C395  1  0.16716333  0.34689667  0.90904667  1
  C  C396  1  0.32505000  0.15439000  0.44157000  1
  C  C397  1  0.84561000  0.17066000  0.44157000  1
  C  C398  1  0.82934000  0.67495000  0.44157000  1
  C  C399  1  0.99171667  0.48772333  0.77490333  1
  C  C400  1  0.51227667  0.50399333  0.77490333  1
  C  C401  1  0.49600667  0.00828333  0.77490333  1
  C  C402  1  0.65838333  0.82105667  0.10823667  1
  C  C403  1  0.17894333  0.83732667  0.10823667  1
  C  C404  1  0.16267333  0.34161667  0.10823667  1
  C  C405  1  0.30951000  0.18373000  0.88533000  1
  C  C406  1  0.81627000  0.12578000  0.88533000  1
  C  C407  1  0.87422000  0.69049000  0.88533000  1
  C  C408  1  0.97617667  0.51706333  0.21866333  1
  C  C409  1  0.48293667  0.45911333  0.21866333  1
  C  C410  1  0.54088667  0.02382333  0.21866333  1
  C  C411  1  0.64284333  0.85039667  0.55199667  1
  C  C412  1  0.14960333  0.79244667  0.55199667  1
  C  C413  1  0.20755333  0.35715667  0.55199667  1
  C  C414  1  0.31644000  0.12169000  0.21191000  1
  C  C415  1  0.87831000  0.19475000  0.21191000  1
  C  C416  1  0.80525000  0.68356000  0.21191000  1
  C  C417  1  0.98310667  0.45502333  0.54524333  1
  C  C418  1  0.54497667  0.52808333  0.54524333  1
  C  C419  1  0.47191667  0.01689333  0.54524333  1
  C  C420  1  0.64977333  0.78835667  0.87857667  1
  C  C421  1  0.21164333  0.86141667  0.87857667  1
  C  C422  1  0.13858333  0.35022667  0.87857667  1
  C  C423  1  0.32184000  0.12253000  0.41021000  1
  C  C424  1  0.87747000  0.19931000  0.41021000  1
  C  C425  1  0.80069000  0.67816000  0.41021000  1
  C  C426  1  0.98850667  0.45586333  0.74354333  1
  C  C427  1  0.54413667  0.53264333  0.74354333  1
  C  C428  1  0.46735667  0.01149333  0.74354333  1
  C  C429  1  0.65517333  0.78919667  0.07687667  1
  C  C430  1  0.21080333  0.86597667  0.07687667  1
  C  C431  1  0.13402333  0.34482667  0.07687667  1
  C  C432  1  0.30596000  0.07431000  0.64899000  1
  C  C433  1  0.92569000  0.23165000  0.64899000  1
  C  C434  1  0.76835000  0.69404000  0.64899000  1
  C  C435  1  0.97262667  0.40764333  0.98232333  1
  C  C436  1  0.59235667  0.56498333  0.98232333  1
  C  C437  1  0.43501667  0.02737333  0.98232333  1
  C  C438  1  0.63929333  0.74097667  0.31565667  1
  C  C439  1  0.25902333  0.89831667  0.31565667  1
  C  C440  1  0.10168333  0.36070667  0.31565667  1
  C  C441  1  0.30589000  0.08921000  0.54140000  1
  C  C442  1  0.91079000  0.21668000  0.54140000  1
  C  C443  1  0.78332000  0.69411000  0.54140000  1
  C  C444  1  0.97255667  0.42254333  0.87473333  1
  C  C445  1  0.57745667  0.55001333  0.87473333  1
  C  C446  1  0.44998667  0.02744333  0.87473333  1
  C  C447  1  0.63922333  0.75587667  0.20806667  1
  C  C448  1  0.24412333  0.88334667  0.20806667  1
  C  C449  1  0.11665333  0.36077667  0.20806667  1
  C  C450  1  0.32304000  0.10654000  0.50537000  1
  C  C451  1  0.89346000  0.21650000  0.50537000  1
  C  C452  1  0.78350000  0.67696000  0.50537000  1
  C  C453  1  0.98970667  0.43987333  0.83870333  1
  C  C454  1  0.56012667  0.54983333  0.83870333  1
  C  C455  1  0.45016667  0.01029333  0.83870333  1
  C  C456  1  0.65637333  0.77320667  0.17203667  1
  C  C457  1  0.22679333  0.88316667  0.17203667  1
  C  C458  1  0.11683333  0.34362667  0.17203667  1
  C  C459  1  0.34072000  0.10880000  0.57355000  1
  C  C460  1  0.89120000  0.23192000  0.57355000  1
  C  C461  1  0.76808000  0.65928000  0.57355000  1
  C  C462  1  0.00738667  0.44213333  0.90688333  1
  C  C463  1  0.55786667  0.56525333  0.90688333  1
  C  C464  1  0.43474667  0.99261333  0.90688333  1
  C  C465  1  0.67405333  0.77546667  0.24021667  1
  C  C466  1  0.22453333  0.89858667  0.24021667  1
  C  C467  1  0.10141333  0.32594667  0.24021667  1
  C  C468  1  0.34073000  0.09392000  0.68168000  1
  C  C469  1  0.90608000  0.24681000  0.68168000  1
  C  C470  1  0.75319000  0.65927000  0.68168000  1
  C  C471  1  0.00739667  0.42725333  0.01501333  1
  C  C472  1  0.57274667  0.58014333  0.01501333  1
  C  C473  1  0.41985667  0.99260333  0.01501333  1
  C  C474  1  0.67406333  0.76058667  0.34834667  1
  C  C475  1  0.23941333  0.91347667  0.34834667  1
  C  C476  1  0.08652333  0.32593667  0.34834667  1
  C  C477  1  0.32353000  0.07687000  0.72261000  1
  C  C478  1  0.92313000  0.24666000  0.72261000  1
  C  C479  1  0.75334000  0.67647000  0.72261000  1
  C  C480  1  0.99019667  0.41020333  0.05594333  1
  C  C481  1  0.58979667  0.57999333  0.05594333  1
  C  C482  1  0.42000667  0.00980333  0.05594333  1
  C  C483  1  0.65686333  0.74353667  0.38927667  1
  C  C484  1  0.25646333  0.91332667  0.38927667  1
  C  C485  1  0.08667333  0.34313667  0.38927667  1
  C  C486  1  0.33006000  0.27699000  0.12043000  1
  C  C487  1  0.72301000  0.05307000  0.12043000  1
  C  C488  1  0.94693000  0.66994000  0.12043000  1
  C  C489  1  0.00000000  0.61032333  0.45376333  1
  C  C490  1  0.38967667  0.38640333  0.45376333  1
  C  C491  1  0.61359667  0.00327333  0.45376333  1
  C  C492  1  0.66339333  0.94365667  0.78709667  1
  C  C493  1  0.05634333  0.71973667  0.78709667  1
  C  C494  1  0.28026333  0.33660667  0.78709667  1
  C  C495  1  0.32812000  0.26205000  0.23991000  1
  C  C496  1  0.73795000  0.06607000  0.23991000  1
  C  C497  1  0.93393000  0.67188000  0.23991000  1
  C  C498  1  0.99478667  0.59538333  0.57324333  1
  C  C499  1  0.40461667  0.39940333  0.57324333  1
  C  C500  1  0.60059667  0.00521333  0.57324333  1
  C  C501  1  0.66145333  0.92871667  0.90657667  1
  C  C502  1  0.07128333  0.73273667  0.90657667  1
  C  C503  1  0.26726333  0.33854667  0.90657667  1
  C  C504  1  0.32564000  0.26255000  0.44227000  1
  C  C505  1  0.73745000  0.06309000  0.44227000  1
  C  C506  1  0.93691000  0.67436000  0.44227000  1
  C  C507  1  0.99230667  0.59588333  0.77560333  1
  C  C508  1  0.40411667  0.39642333  0.77560333  1
  C  C509  1  0.60357667  0.00769333  0.77560333  1
  C  C510  1  0.65897333  0.92921667  0.10893667  1
  C  C511  1  0.07078333  0.72975667  0.10893667  1
  C  C512  1  0.27024333  0.34102667  0.10893667  1
  C  C513  1  0.32349000  0.27753000  0.51994000  1
  C  C514  1  0.72247000  0.04596000  0.51994000  1
  C  C515  1  0.95404000  0.67651000  0.51994000  1
  C  C516  1  0.99015667  0.61086333  0.85327333  1
  C  C517  1  0.38913667  0.37929333  0.85327333  1
  C  C518  1  0.62070667  0.00984333  0.85327333  1
  C  C519  1  0.65682333  0.94419667  0.18660667  1
  C  C520  1  0.05580333  0.71262667  0.18660667  1
  C  C521  1  0.28737333  0.34317667  0.18660667  1
  C  C522  1  0.33225000  0.03676000  0.88755000  1
  C  C523  1  0.96324000  0.29549000  0.88755000  1
  C  C524  1  0.70451000  0.66775000  0.88755000  1
  C  C525  1  0.00000000  0.37009333  0.22088333  1
  C  C526  1  0.62990667  0.62882333  0.22088333  1
  C  C527  1  0.37117667  0.00108333  0.22088333  1
  C  C528  1  0.66558333  0.70342667  0.55421667  1
  C  C529  1  0.29657333  0.96215667  0.55421667  1
  C  C530  1  0.03784333  0.33441667  0.55421667  1
  C  C531  1  0.32715000  0.03507000  0.09056000  1
  C  C532  1  0.96493000  0.29208000  0.09056000  1
  C  C533  1  0.70792000  0.67285000  0.09056000  1
  C  C534  1  0.99381667  0.36840333  0.42389333  1
  C  C535  1  0.63159667  0.62541333  0.42389333  1
  C  C536  1  0.37458667  0.00618333  0.42389333  1
  C  C537  1  0.66048333  0.70173667  0.75722667  1
  C  C538  1  0.29826333  0.95874667  0.75722667  1
  C  C539  1  0.04125333  0.33951667  0.75722667  1
  C  C540  1  0.32739000  0.02073000  0.22949000  1
  C  C541  1  0.97927000  0.30666000  0.22949000  1
  C  C542  1  0.69334000  0.67261000  0.22949000  1
  C  C543  1  0.99405667  0.35406333  0.56282333  1
  C  C544  1  0.64593667  0.63999333  0.56282333  1
  C  C545  1  0.36000667  0.00594333  0.56282333  1
  C  C546  1  0.66072333  0.68739667  0.89615667  1
  C  C547  1  0.31260333  0.97332667  0.89615667  1
  C  C548  1  0.02667333  0.33927667  0.89615667  1
  C  C549  1  0.33266000  0.30878000  0.05902000  1
  C  C550  1  0.69122000  0.02388000  0.05902000  1
  C  C551  1  0.97612000  0.66734000  0.05902000  1
  C  C552  1  0.00000000  0.64211333  0.39235333  1
  C  C553  1  0.35788667  0.35721333  0.39235333  1
  C  C554  1  0.64278667  0.00067333  0.39235333  1
  C  C555  1  0.66599333  0.97544667  0.72568667  1
  C  C556  1  0.02455333  0.69054667  0.72568667  1
  C  C557  1  0.30945333  0.33400667  0.72568667  1
  C  C558  1  0.32880000  0.29268000  0.19702000  1
  C  C559  1  0.70732000  0.03612000  0.19702000  1
  C  C560  1  0.96388000  0.67120000  0.19702000  1
  C  C561  1  0.00000000  0.62601333  0.53035333  1
  C  C562  1  0.37398667  0.36945333  0.53035333  1
  C  C563  1  0.63054667  0.00453333  0.53035333  1
  C  C564  1  0.66213333  0.95934667  0.86368667  1
  C  C565  1  0.04065333  0.70278667  0.86368667  1
  C  C566  1  0.29721333  0.33786667  0.86368667  1
  C  C567  1  0.32511000  0.29259000  0.40208000  1
  C  C568  1  0.70741000  0.03252000  0.40208000  1
  C  C569  1  0.96748000  0.67489000  0.40208000  1
  C  C570  1  0.99177667  0.62592333  0.73541333  1
  C  C571  1  0.37407667  0.36585333  0.73541333  1
  C  C572  1  0.63414667  0.00822333  0.73541333  1
  C  C573  1  0.65844333  0.95925667  0.06874667  1
  C  C574  1  0.04074333  0.69918667  0.06874667  1
  C  C575  1  0.30081333  0.34155667  0.06874667  1
  C  C576  1  0.33101000  0.05048000  0.77054000  1
  C  C577  1  0.94952000  0.28053000  0.77054000  1
  C  C578  1  0.71947000  0.66899000  0.77054000  1
  C  C579  1  0.00000000  0.38381333  0.10387333  1
  C  C580  1  0.61618667  0.61386333  0.10387333  1
  C  C581  1  0.38613667  0.00232333  0.10387333  1
  C  C582  1  0.66434333  0.71714667  0.43720667  1
  C  C583  1  0.28285333  0.94719667  0.43720667  1
  C  C584  1  0.05280333  0.33565667  0.43720667  1
  C  C585  1  0.32429000  0.06219000  0.84699000  1
  C  C586  1  0.93781000  0.26210000  0.84699000  1
  C  C587  1  0.73790000  0.67571000  0.84699000  1
  C  C588  1  0.99095667  0.39552333  0.18032333  1
  C  C589  1  0.60447667  0.59543333  0.18032333  1
  C  C590  1  0.40456667  0.00904333  0.18032333  1
  C  C591  1  0.65762333  0.72885667  0.51365667  1
  C  C592  1  0.27114333  0.92876667  0.51365667  1
  C  C593  1  0.07123333  0.34237667  0.51365667  1
  C  C594  1  0.31890000  0.06034000  0.04391000  1
  C  C595  1  0.93966000  0.25856000  0.04391000  1
  C  C596  1  0.74144000  0.68110000  0.04391000  1
  C  C597  1  0.98556667  0.39367333  0.37724333  1
  C  C598  1  0.60632667  0.59189333  0.37724333  1
  C  C599  1  0.40810667  0.01443333  0.37724333  1
  C  C600  1  0.65223333  0.72700667  0.71057667  1
  C  C601  1  0.27299333  0.92522667  0.71057667  1
  C  C602  1  0.07477333  0.34776667  0.71057667  1
  C  C603  1  0.32037000  0.04708000  0.16385000  1
  C  C604  1  0.95292000  0.27329000  0.16385000  1
  C  C605  1  0.72671000  0.67963000  0.16385000  1
  C  C606  1  0.98703667  0.38041333  0.49718333  1
  C  C607  1  0.61958667  0.60662333  0.49718333  1
  C  C608  1  0.39337667  0.01296333  0.49718333  1
  C  C609  1  0.65370333  0.71374667  0.83051667  1
  C  C610  1  0.28625333  0.93995667  0.83051667  1
  C  C611  1  0.06004333  0.34629667  0.83051667  1
  C  C612  1  0.33010000  0.25165000  0.61124000  1
  C  C613  1  0.74835000  0.07845000  0.61124000  1
  C  C614  1  0.92155000  0.66990000  0.61124000  1
  C  C615  1  0.00000000  0.58498333  0.94457333  1
  C  C616  1  0.41501667  0.41178333  0.94457333  1
  C  C617  1  0.58821667  0.00323333  0.94457333  1
  C  C618  1  0.66343333  0.91831667  0.27790667  1
  C  C619  1  0.08168333  0.74511667  0.27790667  1
  C  C620  1  0.25488333  0.33656667  0.27790667  1
  C  C621  1  0.31205000  0.23436000  0.61431000  1
  C  C622  1  0.76564000  0.07769000  0.61431000  1
  C  C623  1  0.92231000  0.68795000  0.61431000  1
  C  C624  1  0.97871667  0.56769333  0.94764333  1
  C  C625  1  0.43230667  0.41102333  0.94764333  1
  C  C626  1  0.58897667  0.02128333  0.94764333  1
  C  C627  1  0.64538333  0.90102667  0.28097667  1
  C  C628  1  0.09897333  0.74435667  0.28097667  1
  C  C629  1  0.25564333  0.35461667  0.28097667  1
  C  C630  1  0.30881000  0.21838000  0.72841000  1
  C  C631  1  0.78162000  0.09043000  0.72841000  1
  C  C632  1  0.90957000  0.69119000  0.72841000  1
  C  C633  1  0.97547667  0.55171333  0.06174333  1
  C  C634  1  0.44828667  0.42376333  0.06174333  1
  C  C635  1  0.57623667  0.02452333  0.06174333  1
  C  C636  1  0.64214333  0.88504667  0.39507667  1
  C  C637  1  0.11495333  0.75709667  0.39507667  1
  C  C638  1  0.24290333  0.35785667  0.39507667  1
  C  C639  1  0.32444000  0.21922000  0.83213000  1
  C  C640  1  0.78078000  0.10522000  0.83213000  1
  C  C641  1  0.89478000  0.67556000  0.83213000  1
  C  C642  1  0.99110667  0.55255333  0.16546333  1
  C  C643  1  0.44744667  0.43855333  0.16546333  1
  C  C644  1  0.56144667  0.00889333  0.16546333  1
  C  C645  1  0.65777333  0.88588667  0.49879667  1
  C  C646  1  0.11411333  0.77188667  0.49879667  1
  C  C647  1  0.22811333  0.34222667  0.49879667  1
  C  C648  1  0.34254000  0.23645000  0.82646000  1
  C  C649  1  0.76355000  0.10609000  0.82646000  1
  C  C650  1  0.89391000  0.65746000  0.82646000  1
  C  C651  1  0.00920667  0.56978333  0.15979333  1
  C  C652  1  0.43021667  0.43942333  0.15979333  1
  C  C653  1  0.56057667  0.99079333  0.15979333  1
  C  C654  1  0.67587333  0.90311667  0.49312667  1
  C  C655  1  0.09688333  0.77275667  0.49312667  1
  C  C656  1  0.22724333  0.32412667  0.49312667  1
  C  C657  1  0.34515000  0.25300000  0.72884000  1
  C  C658  1  0.74700000  0.09215000  0.72884000  1
  C  C659  1  0.90785000  0.65485000  0.72884000  1
  C  C660  1  0.01181667  0.58633333  0.06217333  1
  C  C661  1  0.41366667  0.42548333  0.06217333  1
  C  C662  1  0.57451667  0.98818333  0.06217333  1
  C  C663  1  0.67848333  0.91966667  0.39550667  1
  C  C664  1  0.08033333  0.75881667  0.39550667  1
  C  C665  1  0.24118333  0.32151667  0.39550667  1
  C  C666  1  0.32233000  0.20253000  0.94941000  1
  C  C667  1  0.79747000  0.11980000  0.94941000  1
  C  C668  1  0.88020000  0.67767000  0.94941000  1
  C  C669  1  0.98899667  0.53586333  0.28274333  1
  C  C670  1  0.46413667  0.45313333  0.28274333  1
  C  C671  1  0.54686667  0.01100333  0.28274333  1
  C  C672  1  0.65566333  0.86919667  0.61607667  1
  C  C673  1  0.13080333  0.78646667  0.61607667  1
  C  C674  1  0.21353333  0.34433667  0.61607667  1
  C  C675  1  0.33379000  0.20498000  0.11542000  1
  C  C676  1  0.79502000  0.12881000  0.11542000  1
  C  C677  1  0.87119000  0.66621000  0.11542000  1
  C  C678  1  0.00045667  0.53831333  0.44875333  1
  C  C679  1  0.46168667  0.46214333  0.44875333  1
  C  C680  1  0.53785667  0.00000000  0.44875333  1
  C  C681  1  0.66712333  0.87164667  0.78208667  1
  C  C682  1  0.12835333  0.79547667  0.78208667  1
  C  C683  1  0.20452333  0.33287667  0.78208667  1
  C  C684  1  0.32617000  0.13887000  0.52241000  1
  C  C685  1  0.86113000  0.18730000  0.52241000  1
  C  C686  1  0.81270000  0.67383000  0.52241000  1
  C  C687  1  0.99283667  0.47220333  0.85574333  1
  C  C688  1  0.52779667  0.52063333  0.85574333  1
  C  C689  1  0.47936667  0.00716333  0.85574333  1
  C  C690  1  0.65950333  0.80553667  0.18907667  1
  C  C691  1  0.19446333  0.85396667  0.18907667  1
  C  C692  1  0.14603333  0.34049667  0.18907667  1
  C  C693  1  0.30765000  0.16748000  0.98357000  1
  C  C694  1  0.83252000  0.14017000  0.98357000  1
  C  C695  1  0.85983000  0.69235000  0.98357000  1
  C  C696  1  0.97431667  0.50081333  0.31690333  1
  C  C697  1  0.49918667  0.47350333  0.31690333  1
  C  C698  1  0.52649667  0.02568333  0.31690333  1
  C  C699  1  0.64098333  0.83414667  0.65023667  1
  C  C700  1  0.16585333  0.80683667  0.65023667  1
  C  C701  1  0.19316333  0.35901667  0.65023667  1
  C  C702  1  0.31965000  0.17006000  0.14393000  1
  C  C703  1  0.82994000  0.14959000  0.14393000  1
  C  C704  1  0.85041000  0.68035000  0.14393000  1
  C  C705  1  0.98631667  0.50339333  0.47726333  1
  C  C706  1  0.49660667  0.48292333  0.47726333  1
  C  C707  1  0.51707667  0.01368333  0.47726333  1
  C  C708  1  0.65298333  0.83672667  0.81059667  1
  C  C709  1  0.16327333  0.81625667  0.81059667  1
  C  C710  1  0.18374333  0.34701667  0.81059667  1
  C  C711  1  0.33270000  0.18877000  0.20588000  1
  C  C712  1  0.81123000  0.14393000  0.20588000  1
  C  C713  1  0.85607000  0.66730000  0.20588000  1
  C  C714  1  0.00000000  0.52210333  0.53921333  1
  C  C715  1  0.47789667  0.47726333  0.53921333  1
  C  C716  1  0.52273667  0.00063333  0.53921333  1
  C  C717  1  0.66603333  0.85543667  0.87254667  1
  C  C718  1  0.14456333  0.81059667  0.87254667  1
  C  C719  1  0.18940333  0.33396667  0.87254667  1
  C  C720  1  0.36315000  0.27214000  0.76851000  1
  C  C721  1  0.72786000  0.09101000  0.76851000  1
  C  C722  1  0.90899000  0.63685000  0.76851000  1
  C  C723  1  0.02981667  0.60547333  0.10184333  1
  C  C724  1  0.39452667  0.42434333  0.10184333  1
  C  C725  1  0.57565667  0.97018333  0.10184333  1
  C  C726  1  0.69648333  0.93880667  0.43517667  1
  C  C727  1  0.06119333  0.75767667  0.43517667  1
  C  C728  1  0.24232333  0.30351667  0.43517667  1
  C  C729  1  0.28851000  0.20109000  0.74264000  1
  C  C730  1  0.79891000  0.08742000  0.74264000  1
  C  C731  1  0.91258000  0.71149000  0.74264000  1
  C  C732  1  0.95517667  0.53442333  0.07597333  1
  C  C733  1  0.46557667  0.42075333  0.07597333  1
  C  C734  1  0.57924667  0.04482333  0.07597333  1
  C  C735  1  0.62184333  0.86775667  0.40930667  1
  C  C736  1  0.13224333  0.75408667  0.40930667  1
  C  C737  1  0.24591333  0.37815667  0.40930667  1
  C  C738  1  0.34737000  0.22437000  0.20179000  1
  C  C739  1  0.77563000  0.12300000  0.20179000  1
  C  C740  1  0.87700000  0.65263000  0.20179000  1
  C  C741  1  0.01403667  0.55770333  0.53512333  1
  C  C742  1  0.44229667  0.45633333  0.53512333  1
  C  C743  1  0.54366667  0.98596333  0.53512333  1
  C  C744  1  0.68070333  0.89103667  0.86845667  1
  C  C745  1  0.10896333  0.78966667  0.86845667  1
  C  C746  1  0.21033333  0.31929667  0.86845667  1
  C  C747  1  0.29287000  0.14765000  0.91558000  1
  C  C748  1  0.85235000  0.14522000  0.91558000  1
  C  C749  1  0.85478000  0.70713000  0.91558000  1
  C  C750  1  0.95953667  0.48098333  0.24891333  1
  C  C751  1  0.51901667  0.47855333  0.24891333  1
  C  C752  1  0.52144667  0.04046333  0.24891333  1
  C  C753  1  0.62620333  0.81431667  0.58224667  1
  C  C754  1  0.18568333  0.81188667  0.58224667  1
  C  C755  1  0.18811333  0.37379667  0.58224667  1
  O  O756  1  0.33949000  0.02609000  0.79637000  1
  O  O757  1  0.97391000  0.31340000  0.79637000  1
  O  O758  1  0.68660000  0.66051000  0.79637000  1
  O  O759  1  0.00615667  0.35942333  0.12970333  1
  O  O760  1  0.64057667  0.64673333  0.12970333  1
  O  O761  1  0.35326667  0.99384333  0.12970333  1
  O  O762  1  0.67282333  0.69275667  0.46303667  1
  O  O763  1  0.30724333  0.98006667  0.46303667  1
  O  O764  1  0.01993333  0.32717667  0.46303667  1
  O  O765  1  0.33216000  0.00854000  0.17244000  1
  O  O766  1  0.99146000  0.32362000  0.17244000  1
  O  O767  1  0.67638000  0.66784000  0.17244000  1
  O  O768  1  0.00000000  0.34187333  0.50577333  1
  O  O769  1  0.65812667  0.65695333  0.50577333  1
  O  O770  1  0.34304667  0.00117333  0.50577333  1
  O  O771  1  0.66549333  0.67520667  0.83910667  1
  O  O772  1  0.32479333  0.99028667  0.83910667  1
  O  O773  1  0.00971333  0.33450667  0.83910667  1
  O  O774  1  0.32268000  0.02086000  0.40858000  1
  O  O775  1  0.97914000  0.30182000  0.40858000  1
  O  O776  1  0.69818000  0.67732000  0.40858000  1
  O  O777  1  0.98934667  0.35419333  0.74191333  1
  O  O778  1  0.64580667  0.63515333  0.74191333  1
  O  O779  1  0.36484667  0.01065333  0.74191333  1
  O  O780  1  0.65601333  0.68752667  0.07524667  1
  O  O781  1  0.31247333  0.96848667  0.07524667  1
  O  O782  1  0.03151333  0.34398667  0.07524667  1
  O  O783  1  0.33703000  0.30762000  0.88113000  1
  O  O784  1  0.69238000  0.02941000  0.88113000  1
  O  O785  1  0.97059000  0.66297000  0.88113000  1
  O  O786  1  0.00369667  0.64095333  0.21446333  1
  O  O787  1  0.35904667  0.36274333  0.21446333  1
  O  O788  1  0.63725667  0.00000000  0.21446333  1
  O  O789  1  0.67036333  0.97428667  0.54779667  1
  O  O790  1  0.02571333  0.69607667  0.54779667  1
  O  O791  1  0.30392333  0.32963667  0.54779667  1
  O  O792  1  0.33169000  0.32343000  0.11580000  1
  O  O793  1  0.67657000  0.00826000  0.11580000  1
  O  O794  1  0.99174000  0.66831000  0.11580000  1
  O  O795  1  0.00000000  0.65676333  0.44913333  1
  O  O796  1  0.34323667  0.34159333  0.44913333  1
  O  O797  1  0.65840667  0.00164333  0.44913333  1
  O  O798  1  0.66502333  0.99009667  0.78246667  1
  O  O799  1  0.00990333  0.67492667  0.78246667  1
  O  O800  1  0.32507333  0.33497667  0.78246667  1
  O  O801  1  0.32179000  0.30621000  0.49480000  1
  O  O802  1  0.69379000  0.01558000  0.49480000  1
  O  O803  1  0.98442000  0.67821000  0.49480000  1
  O  O804  1  0.98845667  0.63954333  0.82813333  1
  O  O805  1  0.36045667  0.34891333  0.82813333  1
  O  O806  1  0.65108667  0.01154333  0.82813333  1
  O  O807  1  0.65512333  0.97287667  0.16146667  1
  O  O808  1  0.02712333  0.68224667  0.16146667  1
  O  O809  1  0.31775333  0.34487667  0.16146667  1
  Zn  Zn810  1  0.32171000  0.00361000  0.62258000  1
  Zn  Zn811  1  0.00000000  0.31810000  0.62258000  1
  Zn  Zn812  1  0.68190000  0.67829000  0.62258000  1
  Zn  Zn813  1  0.98837667  0.33694333  0.95591333  1
  Zn  Zn814  1  0.66305667  0.65143333  0.95591333  1
  Zn  Zn815  1  0.34856667  0.01162333  0.95591333  1
  Zn  Zn816  1  0.65504333  0.67027667  0.28924667  1
  Zn  Zn817  1  0.32972333  0.98476667  0.28924667  1
  Zn  Zn818  1  0.01523333  0.34495667  0.28924667  1
  Zn  Zn819  1  0.34248000  0.32652000  0.66846000  1
  Zn  Zn820  1  0.67348000  0.01596000  0.66846000  1
  Zn  Zn821  1  0.98404000  0.65752000  0.66846000  1
  Zn  Zn822  1  0.00914667  0.65985333  0.00179333  1
  Zn  Zn823  1  0.34014667  0.34929333  0.00179333  1
  Zn  Zn824  1  0.65070667  0.99085333  0.00179333  1
  Zn  Zn825  1  0.67581333  0.99318667  0.33512667  1
  Zn  Zn826  1  0.00681333  0.68262667  0.33512667  1
  Zn  Zn827  1  0.31737333  0.32418667  0.33512667  1
