# generated using pymatgen
data_Zr3H4C12(SO8)2
_symmetry_space_group_name_H-M   'P 1'
_cell_length_a   39.12050000
_cell_length_b   39.12050000
_cell_length_c   39.12050000
_cell_angle_alpha   90.00000000
_cell_angle_beta   90.00000000
_cell_angle_gamma   90.00000000
_symmetry_Int_Tables_number   1
_chemical_formula_structural   Zr3H4C12(SO8)2
_chemical_formula_sum   'Zr144 H192 C576 S96 O768'
_cell_volume   59870.54211894
_cell_formula_units_Z   48
loop_
 _symmetry_equiv_pos_site_id
 _symmetry_equiv_pos_as_xyz
  1  'x, y, z'
loop_
 _atom_site_type_symbol
 _atom_site_label
 _atom_site_symmetry_multiplicity
 _atom_site_fract_x
 _atom_site_fract_y
 _atom_site_fract_z
 _atom_site_occupancy
  Zr  Zr0  1  0.21813810  0.28186210  0.04524814  1
  Zr  Zr1  1  0.78186190  0.71813790  0.04524814  1
  Zr  Zr2  1  0.78186190  0.28186210  0.95475186  1
  Zr  Zr3  1  0.21813810  0.71813790  0.95475186  1
  Zr  Zr4  1  0.04524814  0.21813810  0.28186210  1
  Zr  Zr5  1  0.04524814  0.78186190  0.71813790  1
  Zr  Zr6  1  0.95475186  0.78186190  0.28186210  1
  Zr  Zr7  1  0.95475186  0.21813810  0.71813790  1
  Zr  Zr8  1  0.28186210  0.04524814  0.21813810  1
  Zr  Zr9  1  0.71813790  0.04524814  0.78186190  1
  Zr  Zr10  1  0.28186210  0.95475186  0.78186190  1
  Zr  Zr11  1  0.71813790  0.95475186  0.21813810  1
  Zr  Zr12  1  0.28186210  0.21813810  0.95475186  1
  Zr  Zr13  1  0.71813790  0.78186190  0.95475186  1
  Zr  Zr14  1  0.28186210  0.78186190  0.04524814  1
  Zr  Zr15  1  0.71813790  0.21813810  0.04524814  1
  Zr  Zr16  1  0.21813810  0.04524814  0.71813790  1
  Zr  Zr17  1  0.78186190  0.04524814  0.28186210  1
  Zr  Zr18  1  0.78186190  0.95475186  0.71813790  1
  Zr  Zr19  1  0.21813810  0.95475186  0.28186210  1
  Zr  Zr20  1  0.04524814  0.28186210  0.78186190  1
  Zr  Zr21  1  0.04524814  0.71813790  0.21813810  1
  Zr  Zr22  1  0.95475186  0.28186210  0.21813810  1
  Zr  Zr23  1  0.95475186  0.71813790  0.78186190  1
  Zr  Zr24  1  0.21813810  0.78186210  0.54524814  1
  Zr  Zr25  1  0.78186190  0.21813790  0.54524814  1
  Zr  Zr26  1  0.78186190  0.78186210  0.45475186  1
  Zr  Zr27  1  0.21813810  0.21813790  0.45475186  1
  Zr  Zr28  1  0.04524814  0.71813810  0.78186210  1
  Zr  Zr29  1  0.04524814  0.28186190  0.21813790  1
  Zr  Zr30  1  0.95475186  0.28186190  0.78186210  1
  Zr  Zr31  1  0.95475186  0.71813810  0.21813790  1
  Zr  Zr32  1  0.28186210  0.54524814  0.71813810  1
  Zr  Zr33  1  0.71813790  0.54524814  0.28186190  1
  Zr  Zr34  1  0.28186210  0.45475186  0.28186190  1
  Zr  Zr35  1  0.71813790  0.45475186  0.71813810  1
  Zr  Zr36  1  0.28186210  0.71813810  0.45475186  1
  Zr  Zr37  1  0.71813790  0.28186190  0.45475186  1
  Zr  Zr38  1  0.28186210  0.28186190  0.54524814  1
  Zr  Zr39  1  0.71813790  0.71813810  0.54524814  1
  Zr  Zr40  1  0.21813810  0.54524814  0.21813790  1
  Zr  Zr41  1  0.78186190  0.54524814  0.78186210  1
  Zr  Zr42  1  0.78186190  0.45475186  0.21813790  1
  Zr  Zr43  1  0.21813810  0.45475186  0.78186210  1
  Zr  Zr44  1  0.04524814  0.78186210  0.28186190  1
  Zr  Zr45  1  0.04524814  0.21813790  0.71813810  1
  Zr  Zr46  1  0.95475186  0.78186210  0.71813810  1
  Zr  Zr47  1  0.95475186  0.21813790  0.28186190  1
  Zr  Zr48  1  0.71813810  0.28186210  0.54524814  1
  Zr  Zr49  1  0.28186190  0.71813790  0.54524814  1
  Zr  Zr50  1  0.28186190  0.28186210  0.45475186  1
  Zr  Zr51  1  0.71813810  0.71813790  0.45475186  1
  Zr  Zr52  1  0.54524814  0.21813810  0.78186210  1
  Zr  Zr53  1  0.54524814  0.78186190  0.21813790  1
  Zr  Zr54  1  0.45475186  0.78186190  0.78186210  1
  Zr  Zr55  1  0.45475186  0.21813810  0.21813790  1
  Zr  Zr56  1  0.78186210  0.04524814  0.71813810  1
  Zr  Zr57  1  0.21813790  0.04524814  0.28186190  1
  Zr  Zr58  1  0.78186210  0.95475186  0.28186190  1
  Zr  Zr59  1  0.21813790  0.95475186  0.71813810  1
  Zr  Zr60  1  0.78186210  0.21813810  0.45475186  1
  Zr  Zr61  1  0.21813790  0.78186190  0.45475186  1
  Zr  Zr62  1  0.78186210  0.78186190  0.54524814  1
  Zr  Zr63  1  0.21813790  0.21813810  0.54524814  1
  Zr  Zr64  1  0.71813810  0.04524814  0.21813790  1
  Zr  Zr65  1  0.28186190  0.04524814  0.78186210  1
  Zr  Zr66  1  0.28186190  0.95475186  0.21813790  1
  Zr  Zr67  1  0.71813810  0.95475186  0.78186210  1
  Zr  Zr68  1  0.54524814  0.28186210  0.28186190  1
  Zr  Zr69  1  0.54524814  0.71813790  0.71813810  1
  Zr  Zr70  1  0.45475186  0.28186210  0.71813810  1
  Zr  Zr71  1  0.45475186  0.71813790  0.28186190  1
  Zr  Zr72  1  0.71813810  0.78186210  0.04524814  1
  Zr  Zr73  1  0.28186190  0.21813790  0.04524814  1
  Zr  Zr74  1  0.28186190  0.78186210  0.95475186  1
  Zr  Zr75  1  0.71813810  0.21813790  0.95475186  1
  Zr  Zr76  1  0.54524814  0.71813810  0.28186210  1
  Zr  Zr77  1  0.54524814  0.28186190  0.71813790  1
  Zr  Zr78  1  0.45475186  0.28186190  0.28186210  1
  Zr  Zr79  1  0.45475186  0.71813810  0.71813790  1
  Zr  Zr80  1  0.78186210  0.54524814  0.21813810  1
  Zr  Zr81  1  0.21813790  0.54524814  0.78186190  1
  Zr  Zr82  1  0.78186210  0.45475186  0.78186190  1
  Zr  Zr83  1  0.21813790  0.45475186  0.21813810  1
  Zr  Zr84  1  0.78186210  0.71813810  0.95475186  1
  Zr  Zr85  1  0.21813790  0.28186190  0.95475186  1
  Zr  Zr86  1  0.78186210  0.28186190  0.04524814  1
  Zr  Zr87  1  0.21813790  0.71813810  0.04524814  1
  Zr  Zr88  1  0.71813810  0.54524814  0.71813790  1
  Zr  Zr89  1  0.28186190  0.54524814  0.28186210  1
  Zr  Zr90  1  0.28186190  0.45475186  0.71813790  1
  Zr  Zr91  1  0.71813810  0.45475186  0.28186210  1
  Zr  Zr92  1  0.54524814  0.78186210  0.78186190  1
  Zr  Zr93  1  0.54524814  0.21813790  0.21813810  1
  Zr  Zr94  1  0.45475186  0.78186210  0.21813810  1
  Zr  Zr95  1  0.45475186  0.21813790  0.78186190  1
  Zr  Zr96  1  0.20544312  0.20544312  0.00000000  1
  Zr  Zr97  1  0.79455688  0.79455688  0.00000000  1
  Zr  Zr98  1  0.79455688  0.20544312  0.00000000  1
  Zr  Zr99  1  0.20544312  0.79455688  0.00000000  1
  Zr  Zr100  1  0.00000000  0.20544312  0.20544312  1
  Zr  Zr101  1  0.00000000  0.79455688  0.79455688  1
  Zr  Zr102  1  0.00000000  0.79455688  0.20544312  1
  Zr  Zr103  1  0.00000000  0.20544312  0.79455688  1
  Zr  Zr104  1  0.20544312  0.00000000  0.20544312  1
  Zr  Zr105  1  0.79455688  0.00000000  0.79455688  1
  Zr  Zr106  1  0.20544312  0.00000000  0.79455688  1
  Zr  Zr107  1  0.79455688  0.00000000  0.20544312  1
  Zr  Zr108  1  0.20544312  0.70544312  0.50000000  1
  Zr  Zr109  1  0.79455688  0.29455688  0.50000000  1
  Zr  Zr110  1  0.79455688  0.70544312  0.50000000  1
  Zr  Zr111  1  0.20544312  0.29455688  0.50000000  1
  Zr  Zr112  1  0.00000000  0.70544312  0.70544312  1
  Zr  Zr113  1  0.00000000  0.29455688  0.29455688  1
  Zr  Zr114  1  0.00000000  0.29455688  0.70544312  1
  Zr  Zr115  1  0.00000000  0.70544312  0.29455688  1
  Zr  Zr116  1  0.20544312  0.50000000  0.70544312  1
  Zr  Zr117  1  0.79455688  0.50000000  0.29455688  1
  Zr  Zr118  1  0.20544312  0.50000000  0.29455688  1
  Zr  Zr119  1  0.79455688  0.50000000  0.70544312  1
  Zr  Zr120  1  0.70544312  0.20544312  0.50000000  1
  Zr  Zr121  1  0.29455688  0.79455688  0.50000000  1
  Zr  Zr122  1  0.29455688  0.20544312  0.50000000  1
  Zr  Zr123  1  0.70544312  0.79455688  0.50000000  1
  Zr  Zr124  1  0.50000000  0.20544312  0.70544312  1
  Zr  Zr125  1  0.50000000  0.79455688  0.29455688  1
  Zr  Zr126  1  0.50000000  0.79455688  0.70544312  1
  Zr  Zr127  1  0.50000000  0.20544312  0.29455688  1
  Zr  Zr128  1  0.70544312  0.00000000  0.70544312  1
  Zr  Zr129  1  0.29455688  0.00000000  0.29455688  1
  Zr  Zr130  1  0.70544312  0.00000000  0.29455688  1
  Zr  Zr131  1  0.29455688  0.00000000  0.70544312  1
  Zr  Zr132  1  0.70544312  0.70544312  0.00000000  1
  Zr  Zr133  1  0.29455688  0.29455688  0.00000000  1
  Zr  Zr134  1  0.29455688  0.70544312  0.00000000  1
  Zr  Zr135  1  0.70544312  0.29455688  0.00000000  1
  Zr  Zr136  1  0.50000000  0.70544312  0.20544312  1
  Zr  Zr137  1  0.50000000  0.29455688  0.79455688  1
  Zr  Zr138  1  0.50000000  0.29455688  0.20544312  1
  Zr  Zr139  1  0.50000000  0.70544312  0.79455688  1
  Zr  Zr140  1  0.70544312  0.50000000  0.20544312  1
  Zr  Zr141  1  0.29455688  0.50000000  0.79455688  1
  Zr  Zr142  1  0.70544312  0.50000000  0.79455688  1
  Zr  Zr143  1  0.29455688  0.50000000  0.20544312  1
  S  S144  1  0.24878600  0.11132500  0.11132500  1
  S  S145  1  0.75121400  0.88867500  0.11132500  1
  S  S146  1  0.75121400  0.11132500  0.88867500  1
  S  S147  1  0.24878600  0.88867500  0.88867500  1
  S  S148  1  0.11132500  0.24878600  0.11132500  1
  S  S149  1  0.11132500  0.75121400  0.88867500  1
  S  S150  1  0.88867500  0.75121400  0.11132500  1
  S  S151  1  0.88867500  0.24878600  0.88867500  1
  S  S152  1  0.11132500  0.11132500  0.24878600  1
  S  S153  1  0.88867500  0.11132500  0.75121400  1
  S  S154  1  0.11132500  0.88867500  0.75121400  1
  S  S155  1  0.88867500  0.88867500  0.24878600  1
  S  S156  1  0.11132500  0.24878600  0.88867500  1
  S  S157  1  0.88867500  0.75121400  0.88867500  1
  S  S158  1  0.11132500  0.75121400  0.11132500  1
  S  S159  1  0.88867500  0.24878600  0.11132500  1
  S  S160  1  0.24878600  0.11132500  0.88867500  1
  S  S161  1  0.75121400  0.11132500  0.11132500  1
  S  S162  1  0.75121400  0.88867500  0.88867500  1
  S  S163  1  0.24878600  0.88867500  0.11132500  1
  S  S164  1  0.11132500  0.11132500  0.75121400  1
  S  S165  1  0.11132500  0.88867500  0.24878600  1
  S  S166  1  0.88867500  0.11132500  0.24878600  1
  S  S167  1  0.88867500  0.88867500  0.75121400  1
  S  S168  1  0.24878600  0.61132500  0.61132500  1
  S  S169  1  0.75121400  0.38867500  0.61132500  1
  S  S170  1  0.75121400  0.61132500  0.38867500  1
  S  S171  1  0.24878600  0.38867500  0.38867500  1
  S  S172  1  0.11132500  0.74878600  0.61132500  1
  S  S173  1  0.11132500  0.25121400  0.38867500  1
  S  S174  1  0.88867500  0.25121400  0.61132500  1
  S  S175  1  0.88867500  0.74878600  0.38867500  1
  S  S176  1  0.11132500  0.61132500  0.74878600  1
  S  S177  1  0.88867500  0.61132500  0.25121400  1
  S  S178  1  0.11132500  0.38867500  0.25121400  1
  S  S179  1  0.88867500  0.38867500  0.74878600  1
  S  S180  1  0.11132500  0.74878600  0.38867500  1
  S  S181  1  0.88867500  0.25121400  0.38867500  1
  S  S182  1  0.11132500  0.25121400  0.61132500  1
  S  S183  1  0.88867500  0.74878600  0.61132500  1
  S  S184  1  0.24878600  0.61132500  0.38867500  1
  S  S185  1  0.75121400  0.61132500  0.61132500  1
  S  S186  1  0.75121400  0.38867500  0.38867500  1
  S  S187  1  0.24878600  0.38867500  0.61132500  1
  S  S188  1  0.11132500  0.61132500  0.25121400  1
  S  S189  1  0.11132500  0.38867500  0.74878600  1
  S  S190  1  0.88867500  0.61132500  0.74878600  1
  S  S191  1  0.88867500  0.38867500  0.25121400  1
  S  S192  1  0.74878600  0.11132500  0.61132500  1
  S  S193  1  0.25121400  0.88867500  0.61132500  1
  S  S194  1  0.25121400  0.11132500  0.38867500  1
  S  S195  1  0.74878600  0.88867500  0.38867500  1
  S  S196  1  0.61132500  0.24878600  0.61132500  1
  S  S197  1  0.61132500  0.75121400  0.38867500  1
  S  S198  1  0.38867500  0.75121400  0.61132500  1
  S  S199  1  0.38867500  0.24878600  0.38867500  1
  S  S200  1  0.61132500  0.11132500  0.74878600  1
  S  S201  1  0.38867500  0.11132500  0.25121400  1
  S  S202  1  0.61132500  0.88867500  0.25121400  1
  S  S203  1  0.38867500  0.88867500  0.74878600  1
  S  S204  1  0.61132500  0.24878600  0.38867500  1
  S  S205  1  0.38867500  0.75121400  0.38867500  1
  S  S206  1  0.61132500  0.75121400  0.61132500  1
  S  S207  1  0.38867500  0.24878600  0.61132500  1
  S  S208  1  0.74878600  0.11132500  0.38867500  1
  S  S209  1  0.25121400  0.11132500  0.61132500  1
  S  S210  1  0.25121400  0.88867500  0.38867500  1
  S  S211  1  0.74878600  0.88867500  0.61132500  1
  S  S212  1  0.61132500  0.11132500  0.25121400  1
  S  S213  1  0.61132500  0.88867500  0.74878600  1
  S  S214  1  0.38867500  0.11132500  0.74878600  1
  S  S215  1  0.38867500  0.88867500  0.25121400  1
  S  S216  1  0.74878600  0.61132500  0.11132500  1
  S  S217  1  0.25121400  0.38867500  0.11132500  1
  S  S218  1  0.25121400  0.61132500  0.88867500  1
  S  S219  1  0.74878600  0.38867500  0.88867500  1
  S  S220  1  0.61132500  0.74878600  0.11132500  1
  S  S221  1  0.61132500  0.25121400  0.88867500  1
  S  S222  1  0.38867500  0.25121400  0.11132500  1
  S  S223  1  0.38867500  0.74878600  0.88867500  1
  S  S224  1  0.61132500  0.61132500  0.24878600  1
  S  S225  1  0.38867500  0.61132500  0.75121400  1
  S  S226  1  0.61132500  0.38867500  0.75121400  1
  S  S227  1  0.38867500  0.38867500  0.24878600  1
  S  S228  1  0.61132500  0.74878600  0.88867500  1
  S  S229  1  0.38867500  0.25121400  0.88867500  1
  S  S230  1  0.61132500  0.25121400  0.11132500  1
  S  S231  1  0.38867500  0.74878600  0.11132500  1
  S  S232  1  0.74878600  0.61132500  0.88867500  1
  S  S233  1  0.25121400  0.61132500  0.11132500  1
  S  S234  1  0.25121400  0.38867500  0.88867500  1
  S  S235  1  0.74878600  0.38867500  0.11132500  1
  S  S236  1  0.61132500  0.61132500  0.75121400  1
  S  S237  1  0.61132500  0.38867500  0.24878600  1
  S  S238  1  0.38867500  0.61132500  0.24878600  1
  S  S239  1  0.38867500  0.38867500  0.75121400  1
  C  C240  1  0.23033140  0.15302140  0.05710130  1
  C  C241  1  0.76966860  0.84697860  0.05710130  1
  C  C242  1  0.76966860  0.15302140  0.94289870  1
  C  C243  1  0.23033140  0.84697860  0.94289870  1
  C  C244  1  0.05710130  0.23033140  0.15302140  1
  C  C245  1  0.05710130  0.76966860  0.84697860  1
  C  C246  1  0.94289870  0.76966860  0.15302140  1
  C  C247  1  0.94289870  0.23033140  0.84697860  1
  C  C248  1  0.15302140  0.05710130  0.23033140  1
  C  C249  1  0.84697860  0.05710130  0.76966860  1
  C  C250  1  0.15302140  0.94289870  0.76966860  1
  C  C251  1  0.84697860  0.94289870  0.23033140  1
  C  C252  1  0.15302140  0.23033140  0.94289870  1
  C  C253  1  0.84697860  0.76966860  0.94289870  1
  C  C254  1  0.15302140  0.76966860  0.05710130  1
  C  C255  1  0.84697860  0.23033140  0.05710130  1
  C  C256  1  0.23033140  0.05710130  0.84697860  1
  C  C257  1  0.76966860  0.05710130  0.15302140  1
  C  C258  1  0.76966860  0.94289870  0.84697860  1
  C  C259  1  0.23033140  0.94289870  0.15302140  1
  C  C260  1  0.05710130  0.15302140  0.76966860  1
  C  C261  1  0.05710130  0.84697860  0.23033140  1
  C  C262  1  0.94289870  0.15302140  0.23033140  1
  C  C263  1  0.94289870  0.84697860  0.76966860  1
  C  C264  1  0.23033140  0.65302140  0.55710130  1
  C  C265  1  0.76966860  0.34697860  0.55710130  1
  C  C266  1  0.76966860  0.65302140  0.44289870  1
  C  C267  1  0.23033140  0.34697860  0.44289870  1
  C  C268  1  0.05710130  0.73033140  0.65302140  1
  C  C269  1  0.05710130  0.26966860  0.34697860  1
  C  C270  1  0.94289870  0.26966860  0.65302140  1
  C  C271  1  0.94289870  0.73033140  0.34697860  1
  C  C272  1  0.15302140  0.55710130  0.73033140  1
  C  C273  1  0.84697860  0.55710130  0.26966860  1
  C  C274  1  0.15302140  0.44289870  0.26966860  1
  C  C275  1  0.84697860  0.44289870  0.73033140  1
  C  C276  1  0.15302140  0.73033140  0.44289870  1
  C  C277  1  0.84697860  0.26966860  0.44289870  1
  C  C278  1  0.15302140  0.26966860  0.55710130  1
  C  C279  1  0.84697860  0.73033140  0.55710130  1
  C  C280  1  0.23033140  0.55710130  0.34697860  1
  C  C281  1  0.76966860  0.55710130  0.65302140  1
  C  C282  1  0.76966860  0.44289870  0.34697860  1
  C  C283  1  0.23033140  0.44289870  0.65302140  1
  C  C284  1  0.05710130  0.65302140  0.26966860  1
  C  C285  1  0.05710130  0.34697860  0.73033140  1
  C  C286  1  0.94289870  0.65302140  0.73033140  1
  C  C287  1  0.94289870  0.34697860  0.26966860  1
  C  C288  1  0.73033140  0.15302140  0.55710130  1
  C  C289  1  0.26966860  0.84697860  0.55710130  1
  C  C290  1  0.26966860  0.15302140  0.44289870  1
  C  C291  1  0.73033140  0.84697860  0.44289870  1
  C  C292  1  0.55710130  0.23033140  0.65302140  1
  C  C293  1  0.55710130  0.76966860  0.34697860  1
  C  C294  1  0.44289870  0.76966860  0.65302140  1
  C  C295  1  0.44289870  0.23033140  0.34697860  1
  C  C296  1  0.65302140  0.05710130  0.73033140  1
  C  C297  1  0.34697860  0.05710130  0.26966860  1
  C  C298  1  0.65302140  0.94289870  0.26966860  1
  C  C299  1  0.34697860  0.94289870  0.73033140  1
  C  C300  1  0.65302140  0.23033140  0.44289870  1
  C  C301  1  0.34697860  0.76966860  0.44289870  1
  C  C302  1  0.65302140  0.76966860  0.55710130  1
  C  C303  1  0.34697860  0.23033140  0.55710130  1
  C  C304  1  0.73033140  0.05710130  0.34697860  1
  C  C305  1  0.26966860  0.05710130  0.65302140  1
  C  C306  1  0.26966860  0.94289870  0.34697860  1
  C  C307  1  0.73033140  0.94289870  0.65302140  1
  C  C308  1  0.55710130  0.15302140  0.26966860  1
  C  C309  1  0.55710130  0.84697860  0.73033140  1
  C  C310  1  0.44289870  0.15302140  0.73033140  1
  C  C311  1  0.44289870  0.84697860  0.26966860  1
  C  C312  1  0.73033140  0.65302140  0.05710130  1
  C  C313  1  0.26966860  0.34697860  0.05710130  1
  C  C314  1  0.26966860  0.65302140  0.94289870  1
  C  C315  1  0.73033140  0.34697860  0.94289870  1
  C  C316  1  0.55710130  0.73033140  0.15302140  1
  C  C317  1  0.55710130  0.26966860  0.84697860  1
  C  C318  1  0.44289870  0.26966860  0.15302140  1
  C  C319  1  0.44289870  0.73033140  0.84697860  1
  C  C320  1  0.65302140  0.55710130  0.23033140  1
  C  C321  1  0.34697860  0.55710130  0.76966860  1
  C  C322  1  0.65302140  0.44289870  0.76966860  1
  C  C323  1  0.34697860  0.44289870  0.23033140  1
  C  C324  1  0.65302140  0.73033140  0.94289870  1
  C  C325  1  0.34697860  0.26966860  0.94289870  1
  C  C326  1  0.65302140  0.26966860  0.05710130  1
  C  C327  1  0.34697860  0.73033140  0.05710130  1
  C  C328  1  0.73033140  0.55710130  0.84697860  1
  C  C329  1  0.26966860  0.55710130  0.15302140  1
  C  C330  1  0.26966860  0.44289870  0.84697860  1
  C  C331  1  0.73033140  0.44289870  0.15302140  1
  C  C332  1  0.55710130  0.65302140  0.76966860  1
  C  C333  1  0.55710130  0.34697860  0.23033140  1
  C  C334  1  0.44289870  0.65302140  0.23033140  1
  C  C335  1  0.44289870  0.34697860  0.76966860  1
  C  C336  1  0.76966860  0.84697860  0.94289870  1
  C  C337  1  0.23033140  0.15302140  0.94289870  1
  C  C338  1  0.23033140  0.84697860  0.05710130  1
  C  C339  1  0.76966860  0.15302140  0.05710130  1
  C  C340  1  0.94289870  0.76966860  0.84697860  1
  C  C341  1  0.94289870  0.23033140  0.15302140  1
  C  C342  1  0.05710130  0.23033140  0.84697860  1
  C  C343  1  0.05710130  0.76966860  0.15302140  1
  C  C344  1  0.84697860  0.94289870  0.76966860  1
  C  C345  1  0.15302140  0.94289870  0.23033140  1
  C  C346  1  0.84697860  0.05710130  0.23033140  1
  C  C347  1  0.15302140  0.05710130  0.76966860  1
  C  C348  1  0.84697860  0.76966860  0.05710130  1
  C  C349  1  0.15302140  0.23033140  0.05710130  1
  C  C350  1  0.84697860  0.23033140  0.94289870  1
  C  C351  1  0.15302140  0.76966860  0.94289870  1
  C  C352  1  0.76966860  0.94289870  0.15302140  1
  C  C353  1  0.23033140  0.94289870  0.84697860  1
  C  C354  1  0.23033140  0.05710130  0.15302140  1
  C  C355  1  0.76966860  0.05710130  0.84697860  1
  C  C356  1  0.94289870  0.84697860  0.23033140  1
  C  C357  1  0.94289870  0.15302140  0.76966860  1
  C  C358  1  0.05710130  0.84697860  0.76966860  1
  C  C359  1  0.05710130  0.15302140  0.23033140  1
  C  C360  1  0.76966860  0.34697860  0.44289870  1
  C  C361  1  0.23033140  0.65302140  0.44289870  1
  C  C362  1  0.23033140  0.34697860  0.55710130  1
  C  C363  1  0.76966860  0.65302140  0.55710130  1
  C  C364  1  0.94289870  0.26966860  0.34697860  1
  C  C365  1  0.94289870  0.73033140  0.65302140  1
  C  C366  1  0.05710130  0.73033140  0.34697860  1
  C  C367  1  0.05710130  0.26966860  0.65302140  1
  C  C368  1  0.84697860  0.44289870  0.26966860  1
  C  C369  1  0.15302140  0.44289870  0.73033140  1
  C  C370  1  0.84697860  0.55710130  0.73033140  1
  C  C371  1  0.15302140  0.55710130  0.26966860  1
  C  C372  1  0.84697860  0.26966860  0.55710130  1
  C  C373  1  0.15302140  0.73033140  0.55710130  1
  C  C374  1  0.84697860  0.73033140  0.44289870  1
  C  C375  1  0.15302140  0.26966860  0.44289870  1
  C  C376  1  0.76966860  0.44289870  0.65302140  1
  C  C377  1  0.23033140  0.44289870  0.34697860  1
  C  C378  1  0.23033140  0.55710130  0.65302140  1
  C  C379  1  0.76966860  0.55710130  0.34697860  1
  C  C380  1  0.94289870  0.34697860  0.73033140  1
  C  C381  1  0.94289870  0.65302140  0.26966860  1
  C  C382  1  0.05710130  0.34697860  0.26966860  1
  C  C383  1  0.05710130  0.65302140  0.73033140  1
  C  C384  1  0.26966860  0.84697860  0.44289870  1
  C  C385  1  0.73033140  0.15302140  0.44289870  1
  C  C386  1  0.73033140  0.84697860  0.55710130  1
  C  C387  1  0.26966860  0.15302140  0.55710130  1
  C  C388  1  0.44289870  0.76966860  0.34697860  1
  C  C389  1  0.44289870  0.23033140  0.65302140  1
  C  C390  1  0.55710130  0.23033140  0.34697860  1
  C  C391  1  0.55710130  0.76966860  0.65302140  1
  C  C392  1  0.34697860  0.94289870  0.26966860  1
  C  C393  1  0.65302140  0.94289870  0.73033140  1
  C  C394  1  0.34697860  0.05710130  0.73033140  1
  C  C395  1  0.65302140  0.05710130  0.26966860  1
  C  C396  1  0.34697860  0.76966860  0.55710130  1
  C  C397  1  0.65302140  0.23033140  0.55710130  1
  C  C398  1  0.34697860  0.23033140  0.44289870  1
  C  C399  1  0.65302140  0.76966860  0.44289870  1
  C  C400  1  0.26966860  0.94289870  0.65302140  1
  C  C401  1  0.73033140  0.94289870  0.34697860  1
  C  C402  1  0.73033140  0.05710130  0.65302140  1
  C  C403  1  0.26966860  0.05710130  0.34697860  1
  C  C404  1  0.44289870  0.84697860  0.73033140  1
  C  C405  1  0.44289870  0.15302140  0.26966860  1
  C  C406  1  0.55710130  0.84697860  0.26966860  1
  C  C407  1  0.55710130  0.15302140  0.73033140  1
  C  C408  1  0.26966860  0.34697860  0.94289870  1
  C  C409  1  0.73033140  0.65302140  0.94289870  1
  C  C410  1  0.73033140  0.34697860  0.05710130  1
  C  C411  1  0.26966860  0.65302140  0.05710130  1
  C  C412  1  0.44289870  0.26966860  0.84697860  1
  C  C413  1  0.44289870  0.73033140  0.15302140  1
  C  C414  1  0.55710130  0.73033140  0.84697860  1
  C  C415  1  0.55710130  0.26966860  0.15302140  1
  C  C416  1  0.34697860  0.44289870  0.76966860  1
  C  C417  1  0.65302140  0.44289870  0.23033140  1
  C  C418  1  0.34697860  0.55710130  0.23033140  1
  C  C419  1  0.65302140  0.55710130  0.76966860  1
  C  C420  1  0.34697860  0.26966860  0.05710130  1
  C  C421  1  0.65302140  0.73033140  0.05710130  1
  C  C422  1  0.34697860  0.73033140  0.94289870  1
  C  C423  1  0.65302140  0.26966860  0.94289870  1
  C  C424  1  0.26966860  0.44289870  0.15302140  1
  C  C425  1  0.73033140  0.44289870  0.84697860  1
  C  C426  1  0.73033140  0.55710130  0.15302140  1
  C  C427  1  0.26966860  0.55710130  0.84697860  1
  C  C428  1  0.44289870  0.34697860  0.23033140  1
  C  C429  1  0.44289870  0.65302140  0.76966860  1
  C  C430  1  0.55710130  0.34697860  0.76966860  1
  C  C431  1  0.55710130  0.65302140  0.23033140  1
  C  C432  1  0.22206170  0.12316160  0.07880160  1
  C  C433  1  0.77793830  0.87683840  0.07880160  1
  C  C434  1  0.77793830  0.12316160  0.92119840  1
  C  C435  1  0.22206170  0.87683840  0.92119840  1
  C  C436  1  0.07880160  0.22206170  0.12316160  1
  C  C437  1  0.07880160  0.77793830  0.87683840  1
  C  C438  1  0.92119840  0.77793830  0.12316160  1
  C  C439  1  0.92119840  0.22206170  0.87683840  1
  C  C440  1  0.12316160  0.07880160  0.22206170  1
  C  C441  1  0.87683840  0.07880160  0.77793830  1
  C  C442  1  0.12316160  0.92119840  0.77793830  1
  C  C443  1  0.87683840  0.92119840  0.22206170  1
  C  C444  1  0.12316160  0.22206170  0.92119840  1
  C  C445  1  0.87683840  0.77793830  0.92119840  1
  C  C446  1  0.12316160  0.77793830  0.07880160  1
  C  C447  1  0.87683840  0.22206170  0.07880160  1
  C  C448  1  0.22206170  0.07880160  0.87683840  1
  C  C449  1  0.77793830  0.07880160  0.12316160  1
  C  C450  1  0.77793830  0.92119840  0.87683840  1
  C  C451  1  0.22206170  0.92119840  0.12316160  1
  C  C452  1  0.07880160  0.12316160  0.77793830  1
  C  C453  1  0.07880160  0.87683840  0.22206170  1
  C  C454  1  0.92119840  0.12316160  0.22206170  1
  C  C455  1  0.92119840  0.87683840  0.77793830  1
  C  C456  1  0.22206170  0.62316160  0.57880160  1
  C  C457  1  0.77793830  0.37683840  0.57880160  1
  C  C458  1  0.77793830  0.62316160  0.42119840  1
  C  C459  1  0.22206170  0.37683840  0.42119840  1
  C  C460  1  0.07880160  0.72206170  0.62316160  1
  C  C461  1  0.07880160  0.27793830  0.37683840  1
  C  C462  1  0.92119840  0.27793830  0.62316160  1
  C  C463  1  0.92119840  0.72206170  0.37683840  1
  C  C464  1  0.12316160  0.57880160  0.72206170  1
  C  C465  1  0.87683840  0.57880160  0.27793830  1
  C  C466  1  0.12316160  0.42119840  0.27793830  1
  C  C467  1  0.87683840  0.42119840  0.72206170  1
  C  C468  1  0.12316160  0.72206170  0.42119840  1
  C  C469  1  0.87683840  0.27793830  0.42119840  1
  C  C470  1  0.12316160  0.27793830  0.57880160  1
  C  C471  1  0.87683840  0.72206170  0.57880160  1
  C  C472  1  0.22206170  0.57880160  0.37683840  1
  C  C473  1  0.77793830  0.57880160  0.62316160  1
  C  C474  1  0.77793830  0.42119840  0.37683840  1
  C  C475  1  0.22206170  0.42119840  0.62316160  1
  C  C476  1  0.07880160  0.62316160  0.27793830  1
  C  C477  1  0.07880160  0.37683840  0.72206170  1
  C  C478  1  0.92119840  0.62316160  0.72206170  1
  C  C479  1  0.92119840  0.37683840  0.27793830  1
  C  C480  1  0.72206170  0.12316160  0.57880160  1
  C  C481  1  0.27793830  0.87683840  0.57880160  1
  C  C482  1  0.27793830  0.12316160  0.42119840  1
  C  C483  1  0.72206170  0.87683840  0.42119840  1
  C  C484  1  0.57880160  0.22206170  0.62316160  1
  C  C485  1  0.57880160  0.77793830  0.37683840  1
  C  C486  1  0.42119840  0.77793830  0.62316160  1
  C  C487  1  0.42119840  0.22206170  0.37683840  1
  C  C488  1  0.62316160  0.07880160  0.72206170  1
  C  C489  1  0.37683840  0.07880160  0.27793830  1
  C  C490  1  0.62316160  0.92119840  0.27793830  1
  C  C491  1  0.37683840  0.92119840  0.72206170  1
  C  C492  1  0.62316160  0.22206170  0.42119840  1
  C  C493  1  0.37683840  0.77793830  0.42119840  1
  C  C494  1  0.62316160  0.77793830  0.57880160  1
  C  C495  1  0.37683840  0.22206170  0.57880160  1
  C  C496  1  0.72206170  0.07880160  0.37683840  1
  C  C497  1  0.27793830  0.07880160  0.62316160  1
  C  C498  1  0.27793830  0.92119840  0.37683840  1
  C  C499  1  0.72206170  0.92119840  0.62316160  1
  C  C500  1  0.57880160  0.12316160  0.27793830  1
  C  C501  1  0.57880160  0.87683840  0.72206170  1
  C  C502  1  0.42119840  0.12316160  0.72206170  1
  C  C503  1  0.42119840  0.87683840  0.27793830  1
  C  C504  1  0.72206170  0.62316160  0.07880160  1
  C  C505  1  0.27793830  0.37683840  0.07880160  1
  C  C506  1  0.27793830  0.62316160  0.92119840  1
  C  C507  1  0.72206170  0.37683840  0.92119840  1
  C  C508  1  0.57880160  0.72206170  0.12316160  1
  C  C509  1  0.57880160  0.27793830  0.87683840  1
  C  C510  1  0.42119840  0.27793830  0.12316160  1
  C  C511  1  0.42119840  0.72206170  0.87683840  1
  C  C512  1  0.62316160  0.57880160  0.22206170  1
  C  C513  1  0.37683840  0.57880160  0.77793830  1
  C  C514  1  0.62316160  0.42119840  0.77793830  1
  C  C515  1  0.37683840  0.42119840  0.22206170  1
  C  C516  1  0.62316160  0.72206170  0.92119840  1
  C  C517  1  0.37683840  0.27793830  0.92119840  1
  C  C518  1  0.62316160  0.27793830  0.07880160  1
  C  C519  1  0.37683840  0.72206170  0.07880160  1
  C  C520  1  0.72206170  0.57880160  0.87683840  1
  C  C521  1  0.27793830  0.57880160  0.12316160  1
  C  C522  1  0.27793830  0.42119840  0.87683840  1
  C  C523  1  0.72206170  0.42119840  0.12316160  1
  C  C524  1  0.57880160  0.62316160  0.77793830  1
  C  C525  1  0.57880160  0.37683840  0.22206170  1
  C  C526  1  0.42119840  0.62316160  0.22206170  1
  C  C527  1  0.42119840  0.37683840  0.77793830  1
  C  C528  1  0.77793830  0.87683840  0.92119840  1
  C  C529  1  0.22206170  0.12316160  0.92119840  1
  C  C530  1  0.22206170  0.87683840  0.07880160  1
  C  C531  1  0.77793830  0.12316160  0.07880160  1
  C  C532  1  0.92119840  0.77793830  0.87683840  1
  C  C533  1  0.92119840  0.22206170  0.12316160  1
  C  C534  1  0.07880160  0.22206170  0.87683840  1
  C  C535  1  0.07880160  0.77793830  0.12316160  1
  C  C536  1  0.87683840  0.92119840  0.77793830  1
  C  C537  1  0.12316160  0.92119840  0.22206170  1
  C  C538  1  0.87683840  0.07880160  0.22206170  1
  C  C539  1  0.12316160  0.07880160  0.77793830  1
  C  C540  1  0.87683840  0.77793830  0.07880160  1
  C  C541  1  0.12316160  0.22206170  0.07880160  1
  C  C542  1  0.87683840  0.22206170  0.92119840  1
  C  C543  1  0.12316160  0.77793830  0.92119840  1
  C  C544  1  0.77793830  0.92119840  0.12316160  1
  C  C545  1  0.22206170  0.92119840  0.87683840  1
  C  C546  1  0.22206170  0.07880160  0.12316160  1
  C  C547  1  0.77793830  0.07880160  0.87683840  1
  C  C548  1  0.92119840  0.87683840  0.22206170  1
  C  C549  1  0.92119840  0.12316160  0.77793830  1
  C  C550  1  0.07880160  0.87683840  0.77793830  1
  C  C551  1  0.07880160  0.12316160  0.22206170  1
  C  C552  1  0.77793830  0.37683840  0.42119840  1
  C  C553  1  0.22206170  0.62316160  0.42119840  1
  C  C554  1  0.22206170  0.37683840  0.57880160  1
  C  C555  1  0.77793830  0.62316160  0.57880160  1
  C  C556  1  0.92119840  0.27793830  0.37683840  1
  C  C557  1  0.92119840  0.72206170  0.62316160  1
  C  C558  1  0.07880160  0.72206170  0.37683840  1
  C  C559  1  0.07880160  0.27793830  0.62316160  1
  C  C560  1  0.87683840  0.42119840  0.27793830  1
  C  C561  1  0.12316160  0.42119840  0.72206170  1
  C  C562  1  0.87683840  0.57880160  0.72206170  1
  C  C563  1  0.12316160  0.57880160  0.27793830  1
  C  C564  1  0.87683840  0.27793830  0.57880160  1
  C  C565  1  0.12316160  0.72206170  0.57880160  1
  C  C566  1  0.87683840  0.72206170  0.42119840  1
  C  C567  1  0.12316160  0.27793830  0.42119840  1
  C  C568  1  0.77793830  0.42119840  0.62316160  1
  C  C569  1  0.22206170  0.42119840  0.37683840  1
  C  C570  1  0.22206170  0.57880160  0.62316160  1
  C  C571  1  0.77793830  0.57880160  0.37683840  1
  C  C572  1  0.92119840  0.37683840  0.72206170  1
  C  C573  1  0.92119840  0.62316160  0.27793830  1
  C  C574  1  0.07880160  0.37683840  0.27793830  1
  C  C575  1  0.07880160  0.62316160  0.72206170  1
  C  C576  1  0.27793830  0.87683840  0.42119840  1
  C  C577  1  0.72206170  0.12316160  0.42119840  1
  C  C578  1  0.72206170  0.87683840  0.57880160  1
  C  C579  1  0.27793830  0.12316160  0.57880160  1
  C  C580  1  0.42119840  0.77793830  0.37683840  1
  C  C581  1  0.42119840  0.22206170  0.62316160  1
  C  C582  1  0.57880160  0.22206170  0.37683840  1
  C  C583  1  0.57880160  0.77793830  0.62316160  1
  C  C584  1  0.37683840  0.92119840  0.27793830  1
  C  C585  1  0.62316160  0.92119840  0.72206170  1
  C  C586  1  0.37683840  0.07880160  0.72206170  1
  C  C587  1  0.62316160  0.07880160  0.27793830  1
  C  C588  1  0.37683840  0.77793830  0.57880160  1
  C  C589  1  0.62316160  0.22206170  0.57880160  1
  C  C590  1  0.37683840  0.22206170  0.42119840  1
  C  C591  1  0.62316160  0.77793830  0.42119840  1
  C  C592  1  0.27793830  0.92119840  0.62316160  1
  C  C593  1  0.72206170  0.92119840  0.37683840  1
  C  C594  1  0.72206170  0.07880160  0.62316160  1
  C  C595  1  0.27793830  0.07880160  0.37683840  1
  C  C596  1  0.42119840  0.87683840  0.72206170  1
  C  C597  1  0.42119840  0.12316160  0.27793830  1
  C  C598  1  0.57880160  0.87683840  0.27793830  1
  C  C599  1  0.57880160  0.12316160  0.72206170  1
  C  C600  1  0.27793830  0.37683840  0.92119840  1
  C  C601  1  0.72206170  0.62316160  0.92119840  1
  C  C602  1  0.72206170  0.37683840  0.07880160  1
  C  C603  1  0.27793830  0.62316160  0.07880160  1
  C  C604  1  0.42119840  0.27793830  0.87683840  1
  C  C605  1  0.42119840  0.72206170  0.12316160  1
  C  C606  1  0.57880160  0.72206170  0.87683840  1
  C  C607  1  0.57880160  0.27793830  0.12316160  1
  C  C608  1  0.37683840  0.42119840  0.77793830  1
  C  C609  1  0.62316160  0.42119840  0.22206170  1
  C  C610  1  0.37683840  0.57880160  0.22206170  1
  C  C611  1  0.62316160  0.57880160  0.77793830  1
  C  C612  1  0.37683840  0.27793830  0.07880160  1
  C  C613  1  0.62316160  0.72206170  0.07880160  1
  C  C614  1  0.37683840  0.72206170  0.92119840  1
  C  C615  1  0.62316160  0.27793830  0.92119840  1
  C  C616  1  0.27793830  0.42119840  0.12316160  1
  C  C617  1  0.72206170  0.42119840  0.87683840  1
  C  C618  1  0.72206170  0.57880160  0.12316160  1
  C  C619  1  0.27793830  0.57880160  0.87683840  1
  C  C620  1  0.42119840  0.37683840  0.22206170  1
  C  C621  1  0.42119840  0.62316160  0.77793830  1
  C  C622  1  0.57880160  0.37683840  0.77793830  1
  C  C623  1  0.57880160  0.62316160  0.22206170  1
  C  C624  1  0.19362000  0.10311190  0.07792000  1
  C  C625  1  0.80638000  0.89688810  0.07792000  1
  C  C626  1  0.80638000  0.10311190  0.92208000  1
  C  C627  1  0.19362000  0.89688810  0.92208000  1
  C  C628  1  0.07792000  0.19362000  0.10311190  1
  C  C629  1  0.07792000  0.80638000  0.89688810  1
  C  C630  1  0.92208000  0.80638000  0.10311190  1
  C  C631  1  0.92208000  0.19362000  0.89688810  1
  C  C632  1  0.10311190  0.07792000  0.19362000  1
  C  C633  1  0.89688810  0.07792000  0.80638000  1
  C  C634  1  0.10311190  0.92208000  0.80638000  1
  C  C635  1  0.89688810  0.92208000  0.19362000  1
  C  C636  1  0.10311190  0.19362000  0.92208000  1
  C  C637  1  0.89688810  0.80638000  0.92208000  1
  C  C638  1  0.10311190  0.80638000  0.07792000  1
  C  C639  1  0.89688810  0.19362000  0.07792000  1
  C  C640  1  0.19362000  0.07792000  0.89688810  1
  C  C641  1  0.80638000  0.07792000  0.10311190  1
  C  C642  1  0.80638000  0.92208000  0.89688810  1
  C  C643  1  0.19362000  0.92208000  0.10311190  1
  C  C644  1  0.07792000  0.10311190  0.80638000  1
  C  C645  1  0.07792000  0.89688810  0.19362000  1
  C  C646  1  0.92208000  0.10311190  0.19362000  1
  C  C647  1  0.92208000  0.89688810  0.80638000  1
  C  C648  1  0.19362000  0.60311190  0.57792000  1
  C  C649  1  0.80638000  0.39688810  0.57792000  1
  C  C650  1  0.80638000  0.60311190  0.42208000  1
  C  C651  1  0.19362000  0.39688810  0.42208000  1
  C  C652  1  0.07792000  0.69362000  0.60311190  1
  C  C653  1  0.07792000  0.30638000  0.39688810  1
  C  C654  1  0.92208000  0.30638000  0.60311190  1
  C  C655  1  0.92208000  0.69362000  0.39688810  1
  C  C656  1  0.10311190  0.57792000  0.69362000  1
  C  C657  1  0.89688810  0.57792000  0.30638000  1
  C  C658  1  0.10311190  0.42208000  0.30638000  1
  C  C659  1  0.89688810  0.42208000  0.69362000  1
  C  C660  1  0.10311190  0.69362000  0.42208000  1
  C  C661  1  0.89688810  0.30638000  0.42208000  1
  C  C662  1  0.10311190  0.30638000  0.57792000  1
  C  C663  1  0.89688810  0.69362000  0.57792000  1
  C  C664  1  0.19362000  0.57792000  0.39688810  1
  C  C665  1  0.80638000  0.57792000  0.60311190  1
  C  C666  1  0.80638000  0.42208000  0.39688810  1
  C  C667  1  0.19362000  0.42208000  0.60311190  1
  C  C668  1  0.07792000  0.60311190  0.30638000  1
  C  C669  1  0.07792000  0.39688810  0.69362000  1
  C  C670  1  0.92208000  0.60311190  0.69362000  1
  C  C671  1  0.92208000  0.39688810  0.30638000  1
  C  C672  1  0.69362000  0.10311190  0.57792000  1
  C  C673  1  0.30638000  0.89688810  0.57792000  1
  C  C674  1  0.30638000  0.10311190  0.42208000  1
  C  C675  1  0.69362000  0.89688810  0.42208000  1
  C  C676  1  0.57792000  0.19362000  0.60311190  1
  C  C677  1  0.57792000  0.80638000  0.39688810  1
  C  C678  1  0.42208000  0.80638000  0.60311190  1
  C  C679  1  0.42208000  0.19362000  0.39688810  1
  C  C680  1  0.60311190  0.07792000  0.69362000  1
  C  C681  1  0.39688810  0.07792000  0.30638000  1
  C  C682  1  0.60311190  0.92208000  0.30638000  1
  C  C683  1  0.39688810  0.92208000  0.69362000  1
  C  C684  1  0.60311190  0.19362000  0.42208000  1
  C  C685  1  0.39688810  0.80638000  0.42208000  1
  C  C686  1  0.60311190  0.80638000  0.57792000  1
  C  C687  1  0.39688810  0.19362000  0.57792000  1
  C  C688  1  0.69362000  0.07792000  0.39688810  1
  C  C689  1  0.30638000  0.07792000  0.60311190  1
  C  C690  1  0.30638000  0.92208000  0.39688810  1
  C  C691  1  0.69362000  0.92208000  0.60311190  1
  C  C692  1  0.57792000  0.10311190  0.30638000  1
  C  C693  1  0.57792000  0.89688810  0.69362000  1
  C  C694  1  0.42208000  0.10311190  0.69362000  1
  C  C695  1  0.42208000  0.89688810  0.30638000  1
  C  C696  1  0.69362000  0.60311190  0.07792000  1
  C  C697  1  0.30638000  0.39688810  0.07792000  1
  C  C698  1  0.30638000  0.60311190  0.92208000  1
  C  C699  1  0.69362000  0.39688810  0.92208000  1
  C  C700  1  0.57792000  0.69362000  0.10311190  1
  C  C701  1  0.57792000  0.30638000  0.89688810  1
  C  C702  1  0.42208000  0.30638000  0.10311190  1
  C  C703  1  0.42208000  0.69362000  0.89688810  1
  C  C704  1  0.60311190  0.57792000  0.19362000  1
  C  C705  1  0.39688810  0.57792000  0.80638000  1
  C  C706  1  0.60311190  0.42208000  0.80638000  1
  C  C707  1  0.39688810  0.42208000  0.19362000  1
  C  C708  1  0.60311190  0.69362000  0.92208000  1
  C  C709  1  0.39688810  0.30638000  0.92208000  1
  C  C710  1  0.60311190  0.30638000  0.07792000  1
  C  C711  1  0.39688810  0.69362000  0.07792000  1
  C  C712  1  0.69362000  0.57792000  0.89688810  1
  C  C713  1  0.30638000  0.57792000  0.10311190  1
  C  C714  1  0.30638000  0.42208000  0.89688810  1
  C  C715  1  0.69362000  0.42208000  0.10311190  1
  C  C716  1  0.57792000  0.60311190  0.80638000  1
  C  C717  1  0.57792000  0.39688810  0.19362000  1
  C  C718  1  0.42208000  0.60311190  0.19362000  1
  C  C719  1  0.42208000  0.39688810  0.80638000  1
  C  C720  1  0.80638000  0.89688810  0.92208000  1
  C  C721  1  0.19362000  0.10311190  0.92208000  1
  C  C722  1  0.19362000  0.89688810  0.07792000  1
  C  C723  1  0.80638000  0.10311190  0.07792000  1
  C  C724  1  0.92208000  0.80638000  0.89688810  1
  C  C725  1  0.92208000  0.19362000  0.10311190  1
  C  C726  1  0.07792000  0.19362000  0.89688810  1
  C  C727  1  0.07792000  0.80638000  0.10311190  1
  C  C728  1  0.89688810  0.92208000  0.80638000  1
  C  C729  1  0.10311190  0.92208000  0.19362000  1
  C  C730  1  0.89688810  0.07792000  0.19362000  1
  C  C731  1  0.10311190  0.07792000  0.80638000  1
  C  C732  1  0.89688810  0.80638000  0.07792000  1
  C  C733  1  0.10311190  0.19362000  0.07792000  1
  C  C734  1  0.89688810  0.19362000  0.92208000  1
  C  C735  1  0.10311190  0.80638000  0.92208000  1
  C  C736  1  0.80638000  0.92208000  0.10311190  1
  C  C737  1  0.19362000  0.92208000  0.89688810  1
  C  C738  1  0.19362000  0.07792000  0.10311190  1
  C  C739  1  0.80638000  0.07792000  0.89688810  1
  C  C740  1  0.92208000  0.89688810  0.19362000  1
  C  C741  1  0.92208000  0.10311190  0.80638000  1
  C  C742  1  0.07792000  0.89688810  0.80638000  1
  C  C743  1  0.07792000  0.10311190  0.19362000  1
  C  C744  1  0.80638000  0.39688810  0.42208000  1
  C  C745  1  0.19362000  0.60311190  0.42208000  1
  C  C746  1  0.19362000  0.39688810  0.57792000  1
  C  C747  1  0.80638000  0.60311190  0.57792000  1
  C  C748  1  0.92208000  0.30638000  0.39688810  1
  C  C749  1  0.92208000  0.69362000  0.60311190  1
  C  C750  1  0.07792000  0.69362000  0.39688810  1
  C  C751  1  0.07792000  0.30638000  0.60311190  1
  C  C752  1  0.89688810  0.42208000  0.30638000  1
  C  C753  1  0.10311190  0.42208000  0.69362000  1
  C  C754  1  0.89688810  0.57792000  0.69362000  1
  C  C755  1  0.10311190  0.57792000  0.30638000  1
  C  C756  1  0.89688810  0.30638000  0.57792000  1
  C  C757  1  0.10311190  0.69362000  0.57792000  1
  C  C758  1  0.89688810  0.69362000  0.42208000  1
  C  C759  1  0.10311190  0.30638000  0.42208000  1
  C  C760  1  0.80638000  0.42208000  0.60311190  1
  C  C761  1  0.19362000  0.42208000  0.39688810  1
  C  C762  1  0.19362000  0.57792000  0.60311190  1
  C  C763  1  0.80638000  0.57792000  0.39688810  1
  C  C764  1  0.92208000  0.39688810  0.69362000  1
  C  C765  1  0.92208000  0.60311190  0.30638000  1
  C  C766  1  0.07792000  0.39688810  0.30638000  1
  C  C767  1  0.07792000  0.60311190  0.69362000  1
  C  C768  1  0.30638000  0.89688810  0.42208000  1
  C  C769  1  0.69362000  0.10311190  0.42208000  1
  C  C770  1  0.69362000  0.89688810  0.57792000  1
  C  C771  1  0.30638000  0.10311190  0.57792000  1
  C  C772  1  0.42208000  0.80638000  0.39688810  1
  C  C773  1  0.42208000  0.19362000  0.60311190  1
  C  C774  1  0.57792000  0.19362000  0.39688810  1
  C  C775  1  0.57792000  0.80638000  0.60311190  1
  C  C776  1  0.39688810  0.92208000  0.30638000  1
  C  C777  1  0.60311190  0.92208000  0.69362000  1
  C  C778  1  0.39688810  0.07792000  0.69362000  1
  C  C779  1  0.60311190  0.07792000  0.30638000  1
  C  C780  1  0.39688810  0.80638000  0.57792000  1
  C  C781  1  0.60311190  0.19362000  0.57792000  1
  C  C782  1  0.39688810  0.19362000  0.42208000  1
  C  C783  1  0.60311190  0.80638000  0.42208000  1
  C  C784  1  0.30638000  0.92208000  0.60311190  1
  C  C785  1  0.69362000  0.92208000  0.39688810  1
  C  C786  1  0.69362000  0.07792000  0.60311190  1
  C  C787  1  0.30638000  0.07792000  0.39688810  1
  C  C788  1  0.42208000  0.89688810  0.69362000  1
  C  C789  1  0.42208000  0.10311190  0.30638000  1
  C  C790  1  0.57792000  0.89688810  0.30638000  1
  C  C791  1  0.57792000  0.10311190  0.69362000  1
  C  C792  1  0.30638000  0.39688810  0.92208000  1
  C  C793  1  0.69362000  0.60311190  0.92208000  1
  C  C794  1  0.69362000  0.39688810  0.07792000  1
  C  C795  1  0.30638000  0.60311190  0.07792000  1
  C  C796  1  0.42208000  0.30638000  0.89688810  1
  C  C797  1  0.42208000  0.69362000  0.10311190  1
  C  C798  1  0.57792000  0.69362000  0.89688810  1
  C  C799  1  0.57792000  0.30638000  0.10311190  1
  C  C800  1  0.39688810  0.42208000  0.80638000  1
  C  C801  1  0.60311190  0.42208000  0.19362000  1
  C  C802  1  0.39688810  0.57792000  0.19362000  1
  C  C803  1  0.60311190  0.57792000  0.80638000  1
  C  C804  1  0.39688810  0.30638000  0.07792000  1
  C  C805  1  0.60311190  0.69362000  0.07792000  1
  C  C806  1  0.39688810  0.69362000  0.92208000  1
  C  C807  1  0.60311190  0.30638000  0.92208000  1
  C  C808  1  0.30638000  0.42208000  0.10311190  1
  C  C809  1  0.69362000  0.42208000  0.89688810  1
  C  C810  1  0.69362000  0.57792000  0.10311190  1
  C  C811  1  0.30638000  0.57792000  0.89688810  1
  C  C812  1  0.42208000  0.39688810  0.19362000  1
  C  C813  1  0.42208000  0.60311190  0.80638000  1
  C  C814  1  0.57792000  0.39688810  0.80638000  1
  C  C815  1  0.57792000  0.60311190  0.19362000  1
  H  H816  1  0.17600000  0.10600000  0.06210000  1
  H  H817  1  0.82400000  0.89400000  0.06210000  1
  H  H818  1  0.82400000  0.10600000  0.93790000  1
  H  H819  1  0.17600000  0.89400000  0.93790000  1
  H  H820  1  0.06210000  0.17600000  0.10600000  1
  H  H821  1  0.06210000  0.82400000  0.89400000  1
  H  H822  1  0.93790000  0.82400000  0.10600000  1
  H  H823  1  0.93790000  0.17600000  0.89400000  1
  H  H824  1  0.10600000  0.06210000  0.17600000  1
  H  H825  1  0.89400000  0.06210000  0.82400000  1
  H  H826  1  0.10600000  0.93790000  0.82400000  1
  H  H827  1  0.89400000  0.93790000  0.17600000  1
  H  H828  1  0.10600000  0.17600000  0.93790000  1
  H  H829  1  0.89400000  0.82400000  0.93790000  1
  H  H830  1  0.10600000  0.82400000  0.06210000  1
  H  H831  1  0.89400000  0.17600000  0.06210000  1
  H  H832  1  0.17600000  0.06210000  0.89400000  1
  H  H833  1  0.82400000  0.06210000  0.10600000  1
  H  H834  1  0.82400000  0.93790000  0.89400000  1
  H  H835  1  0.17600000  0.93790000  0.10600000  1
  H  H836  1  0.06210000  0.10600000  0.82400000  1
  H  H837  1  0.06210000  0.89400000  0.17600000  1
  H  H838  1  0.93790000  0.10600000  0.17600000  1
  H  H839  1  0.93790000  0.89400000  0.82400000  1
  H  H840  1  0.17600000  0.60600000  0.56210000  1
  H  H841  1  0.82400000  0.39400000  0.56210000  1
  H  H842  1  0.82400000  0.60600000  0.43790000  1
  H  H843  1  0.17600000  0.39400000  0.43790000  1
  H  H844  1  0.06210000  0.67600000  0.60600000  1
  H  H845  1  0.06210000  0.32400000  0.39400000  1
  H  H846  1  0.93790000  0.32400000  0.60600000  1
  H  H847  1  0.93790000  0.67600000  0.39400000  1
  H  H848  1  0.10600000  0.56210000  0.67600000  1
  H  H849  1  0.89400000  0.56210000  0.32400000  1
  H  H850  1  0.10600000  0.43790000  0.32400000  1
  H  H851  1  0.89400000  0.43790000  0.67600000  1
  H  H852  1  0.10600000  0.67600000  0.43790000  1
  H  H853  1  0.89400000  0.32400000  0.43790000  1
  H  H854  1  0.10600000  0.32400000  0.56210000  1
  H  H855  1  0.89400000  0.67600000  0.56210000  1
  H  H856  1  0.17600000  0.56210000  0.39400000  1
  H  H857  1  0.82400000  0.56210000  0.60600000  1
  H  H858  1  0.82400000  0.43790000  0.39400000  1
  H  H859  1  0.17600000  0.43790000  0.60600000  1
  H  H860  1  0.06210000  0.60600000  0.32400000  1
  H  H861  1  0.06210000  0.39400000  0.67600000  1
  H  H862  1  0.93790000  0.60600000  0.67600000  1
  H  H863  1  0.93790000  0.39400000  0.32400000  1
  H  H864  1  0.67600000  0.10600000  0.56210000  1
  H  H865  1  0.32400000  0.89400000  0.56210000  1
  H  H866  1  0.32400000  0.10600000  0.43790000  1
  H  H867  1  0.67600000  0.89400000  0.43790000  1
  H  H868  1  0.56210000  0.17600000  0.60600000  1
  H  H869  1  0.56210000  0.82400000  0.39400000  1
  H  H870  1  0.43790000  0.82400000  0.60600000  1
  H  H871  1  0.43790000  0.17600000  0.39400000  1
  H  H872  1  0.60600000  0.06210000  0.67600000  1
  H  H873  1  0.39400000  0.06210000  0.32400000  1
  H  H874  1  0.60600000  0.93790000  0.32400000  1
  H  H875  1  0.39400000  0.93790000  0.67600000  1
  H  H876  1  0.60600000  0.17600000  0.43790000  1
  H  H877  1  0.39400000  0.82400000  0.43790000  1
  H  H878  1  0.60600000  0.82400000  0.56210000  1
  H  H879  1  0.39400000  0.17600000  0.56210000  1
  H  H880  1  0.67600000  0.06210000  0.39400000  1
  H  H881  1  0.32400000  0.06210000  0.60600000  1
  H  H882  1  0.32400000  0.93790000  0.39400000  1
  H  H883  1  0.67600000  0.93790000  0.60600000  1
  H  H884  1  0.56210000  0.10600000  0.32400000  1
  H  H885  1  0.56210000  0.89400000  0.67600000  1
  H  H886  1  0.43790000  0.10600000  0.67600000  1
  H  H887  1  0.43790000  0.89400000  0.32400000  1
  H  H888  1  0.67600000  0.60600000  0.06210000  1
  H  H889  1  0.32400000  0.39400000  0.06210000  1
  H  H890  1  0.32400000  0.60600000  0.93790000  1
  H  H891  1  0.67600000  0.39400000  0.93790000  1
  H  H892  1  0.56210000  0.67600000  0.10600000  1
  H  H893  1  0.56210000  0.32400000  0.89400000  1
  H  H894  1  0.43790000  0.32400000  0.10600000  1
  H  H895  1  0.43790000  0.67600000  0.89400000  1
  H  H896  1  0.60600000  0.56210000  0.17600000  1
  H  H897  1  0.39400000  0.56210000  0.82400000  1
  H  H898  1  0.60600000  0.43790000  0.82400000  1
  H  H899  1  0.39400000  0.43790000  0.17600000  1
  H  H900  1  0.60600000  0.67600000  0.93790000  1
  H  H901  1  0.39400000  0.32400000  0.93790000  1
  H  H902  1  0.60600000  0.32400000  0.06210000  1
  H  H903  1  0.39400000  0.67600000  0.06210000  1
  H  H904  1  0.67600000  0.56210000  0.89400000  1
  H  H905  1  0.32400000  0.56210000  0.10600000  1
  H  H906  1  0.32400000  0.43790000  0.89400000  1
  H  H907  1  0.67600000  0.43790000  0.10600000  1
  H  H908  1  0.56210000  0.60600000  0.82400000  1
  H  H909  1  0.56210000  0.39400000  0.17600000  1
  H  H910  1  0.43790000  0.60600000  0.17600000  1
  H  H911  1  0.43790000  0.39400000  0.82400000  1
  H  H912  1  0.82400000  0.89400000  0.93790000  1
  H  H913  1  0.17600000  0.10600000  0.93790000  1
  H  H914  1  0.17600000  0.89400000  0.06210000  1
  H  H915  1  0.82400000  0.10600000  0.06210000  1
  H  H916  1  0.93790000  0.82400000  0.89400000  1
  H  H917  1  0.93790000  0.17600000  0.10600000  1
  H  H918  1  0.06210000  0.17600000  0.89400000  1
  H  H919  1  0.06210000  0.82400000  0.10600000  1
  H  H920  1  0.89400000  0.93790000  0.82400000  1
  H  H921  1  0.10600000  0.93790000  0.17600000  1
  H  H922  1  0.89400000  0.06210000  0.17600000  1
  H  H923  1  0.10600000  0.06210000  0.82400000  1
  H  H924  1  0.89400000  0.82400000  0.06210000  1
  H  H925  1  0.10600000  0.17600000  0.06210000  1
  H  H926  1  0.89400000  0.17600000  0.93790000  1
  H  H927  1  0.10600000  0.82400000  0.93790000  1
  H  H928  1  0.82400000  0.93790000  0.10600000  1
  H  H929  1  0.17600000  0.93790000  0.89400000  1
  H  H930  1  0.17600000  0.06210000  0.10600000  1
  H  H931  1  0.82400000  0.06210000  0.89400000  1
  H  H932  1  0.93790000  0.89400000  0.17600000  1
  H  H933  1  0.93790000  0.10600000  0.82400000  1
  H  H934  1  0.06210000  0.89400000  0.82400000  1
  H  H935  1  0.06210000  0.10600000  0.17600000  1
  H  H936  1  0.82400000  0.39400000  0.43790000  1
  H  H937  1  0.17600000  0.60600000  0.43790000  1
  H  H938  1  0.17600000  0.39400000  0.56210000  1
  H  H939  1  0.82400000  0.60600000  0.56210000  1
  H  H940  1  0.93790000  0.32400000  0.39400000  1
  H  H941  1  0.93790000  0.67600000  0.60600000  1
  H  H942  1  0.06210000  0.67600000  0.39400000  1
  H  H943  1  0.06210000  0.32400000  0.60600000  1
  H  H944  1  0.89400000  0.43790000  0.32400000  1
  H  H945  1  0.10600000  0.43790000  0.67600000  1
  H  H946  1  0.89400000  0.56210000  0.67600000  1
  H  H947  1  0.10600000  0.56210000  0.32400000  1
  H  H948  1  0.89400000  0.32400000  0.56210000  1
  H  H949  1  0.10600000  0.67600000  0.56210000  1
  H  H950  1  0.89400000  0.67600000  0.43790000  1
  H  H951  1  0.10600000  0.32400000  0.43790000  1
  H  H952  1  0.82400000  0.43790000  0.60600000  1
  H  H953  1  0.17600000  0.43790000  0.39400000  1
  H  H954  1  0.17600000  0.56210000  0.60600000  1
  H  H955  1  0.82400000  0.56210000  0.39400000  1
  H  H956  1  0.93790000  0.39400000  0.67600000  1
  H  H957  1  0.93790000  0.60600000  0.32400000  1
  H  H958  1  0.06210000  0.39400000  0.32400000  1
  H  H959  1  0.06210000  0.60600000  0.67600000  1
  H  H960  1  0.32400000  0.89400000  0.43790000  1
  H  H961  1  0.67600000  0.10600000  0.43790000  1
  H  H962  1  0.67600000  0.89400000  0.56210000  1
  H  H963  1  0.32400000  0.10600000  0.56210000  1
  H  H964  1  0.43790000  0.82400000  0.39400000  1
  H  H965  1  0.43790000  0.17600000  0.60600000  1
  H  H966  1  0.56210000  0.17600000  0.39400000  1
  H  H967  1  0.56210000  0.82400000  0.60600000  1
  H  H968  1  0.39400000  0.93790000  0.32400000  1
  H  H969  1  0.60600000  0.93790000  0.67600000  1
  H  H970  1  0.39400000  0.06210000  0.67600000  1
  H  H971  1  0.60600000  0.06210000  0.32400000  1
  H  H972  1  0.39400000  0.82400000  0.56210000  1
  H  H973  1  0.60600000  0.17600000  0.56210000  1
  H  H974  1  0.39400000  0.17600000  0.43790000  1
  H  H975  1  0.60600000  0.82400000  0.43790000  1
  H  H976  1  0.32400000  0.93790000  0.60600000  1
  H  H977  1  0.67600000  0.93790000  0.39400000  1
  H  H978  1  0.67600000  0.06210000  0.60600000  1
  H  H979  1  0.32400000  0.06210000  0.39400000  1
  H  H980  1  0.43790000  0.89400000  0.67600000  1
  H  H981  1  0.43790000  0.10600000  0.32400000  1
  H  H982  1  0.56210000  0.89400000  0.32400000  1
  H  H983  1  0.56210000  0.10600000  0.67600000  1
  H  H984  1  0.32400000  0.39400000  0.93790000  1
  H  H985  1  0.67600000  0.60600000  0.93790000  1
  H  H986  1  0.67600000  0.39400000  0.06210000  1
  H  H987  1  0.32400000  0.60600000  0.06210000  1
  H  H988  1  0.43790000  0.32400000  0.89400000  1
  H  H989  1  0.43790000  0.67600000  0.10600000  1
  H  H990  1  0.56210000  0.67600000  0.89400000  1
  H  H991  1  0.56210000  0.32400000  0.10600000  1
  H  H992  1  0.39400000  0.43790000  0.82400000  1
  H  H993  1  0.60600000  0.43790000  0.17600000  1
  H  H994  1  0.39400000  0.56210000  0.17600000  1
  H  H995  1  0.60600000  0.56210000  0.82400000  1
  H  H996  1  0.39400000  0.32400000  0.06210000  1
  H  H997  1  0.60600000  0.67600000  0.06210000  1
  H  H998  1  0.39400000  0.67600000  0.93790000  1
  H  H999  1  0.60600000  0.32400000  0.93790000  1
  H  H1000  1  0.32400000  0.43790000  0.10600000  1
  H  H1001  1  0.67600000  0.43790000  0.89400000  1
  H  H1002  1  0.67600000  0.56210000  0.10600000  1
  H  H1003  1  0.32400000  0.56210000  0.89400000  1
  H  H1004  1  0.43790000  0.39400000  0.17600000  1
  H  H1005  1  0.43790000  0.60600000  0.82400000  1
  H  H1006  1  0.56210000  0.39400000  0.82400000  1
  H  H1007  1  0.56210000  0.60600000  0.17600000  1
  O  O1008  1  0.20900900  0.16051900  0.03422800  1
  O  O1009  1  0.79099100  0.83948100  0.03422800  1
  O  O1010  1  0.79099100  0.16051900  0.96577200  1
  O  O1011  1  0.20900900  0.83948100  0.96577200  1
  O  O1012  1  0.03422800  0.20900900  0.16051900  1
  O  O1013  1  0.03422800  0.79099100  0.83948100  1
  O  O1014  1  0.96577200  0.79099100  0.16051900  1
  O  O1015  1  0.96577200  0.20900900  0.83948100  1
  O  O1016  1  0.16051900  0.03422800  0.20900900  1
  O  O1017  1  0.83948100  0.03422800  0.79099100  1
  O  O1018  1  0.16051900  0.96577200  0.79099100  1
  O  O1019  1  0.83948100  0.96577200  0.20900900  1
  O  O1020  1  0.16051900  0.20900900  0.96577200  1
  O  O1021  1  0.83948100  0.79099100  0.96577200  1
  O  O1022  1  0.16051900  0.79099100  0.03422800  1
  O  O1023  1  0.83948100  0.20900900  0.03422800  1
  O  O1024  1  0.20900900  0.03422800  0.83948100  1
  O  O1025  1  0.79099100  0.03422800  0.16051900  1
  O  O1026  1  0.79099100  0.96577200  0.83948100  1
  O  O1027  1  0.20900900  0.96577200  0.16051900  1
  O  O1028  1  0.03422800  0.16051900  0.79099100  1
  O  O1029  1  0.03422800  0.83948100  0.20900900  1
  O  O1030  1  0.96577200  0.16051900  0.20900900  1
  O  O1031  1  0.96577200  0.83948100  0.79099100  1
  O  O1032  1  0.20900900  0.66051900  0.53422800  1
  O  O1033  1  0.79099100  0.33948100  0.53422800  1
  O  O1034  1  0.79099100  0.66051900  0.46577200  1
  O  O1035  1  0.20900900  0.33948100  0.46577200  1
  O  O1036  1  0.03422800  0.70900900  0.66051900  1
  O  O1037  1  0.03422800  0.29099100  0.33948100  1
  O  O1038  1  0.96577200  0.29099100  0.66051900  1
  O  O1039  1  0.96577200  0.70900900  0.33948100  1
  O  O1040  1  0.16051900  0.53422800  0.70900900  1
  O  O1041  1  0.83948100  0.53422800  0.29099100  1
  O  O1042  1  0.16051900  0.46577200  0.29099100  1
  O  O1043  1  0.83948100  0.46577200  0.70900900  1
  O  O1044  1  0.16051900  0.70900900  0.46577200  1
  O  O1045  1  0.83948100  0.29099100  0.46577200  1
  O  O1046  1  0.16051900  0.29099100  0.53422800  1
  O  O1047  1  0.83948100  0.70900900  0.53422800  1
  O  O1048  1  0.20900900  0.53422800  0.33948100  1
  O  O1049  1  0.79099100  0.53422800  0.66051900  1
  O  O1050  1  0.79099100  0.46577200  0.33948100  1
  O  O1051  1  0.20900900  0.46577200  0.66051900  1
  O  O1052  1  0.03422800  0.66051900  0.29099100  1
  O  O1053  1  0.03422800  0.33948100  0.70900900  1
  O  O1054  1  0.96577200  0.66051900  0.70900900  1
  O  O1055  1  0.96577200  0.33948100  0.29099100  1
  O  O1056  1  0.70900900  0.16051900  0.53422800  1
  O  O1057  1  0.29099100  0.83948100  0.53422800  1
  O  O1058  1  0.29099100  0.16051900  0.46577200  1
  O  O1059  1  0.70900900  0.83948100  0.46577200  1
  O  O1060  1  0.53422800  0.20900900  0.66051900  1
  O  O1061  1  0.53422800  0.79099100  0.33948100  1
  O  O1062  1  0.46577200  0.79099100  0.66051900  1
  O  O1063  1  0.46577200  0.20900900  0.33948100  1
  O  O1064  1  0.66051900  0.03422800  0.70900900  1
  O  O1065  1  0.33948100  0.03422800  0.29099100  1
  O  O1066  1  0.66051900  0.96577200  0.29099100  1
  O  O1067  1  0.33948100  0.96577200  0.70900900  1
  O  O1068  1  0.66051900  0.20900900  0.46577200  1
  O  O1069  1  0.33948100  0.79099100  0.46577200  1
  O  O1070  1  0.66051900  0.79099100  0.53422800  1
  O  O1071  1  0.33948100  0.20900900  0.53422800  1
  O  O1072  1  0.70900900  0.03422800  0.33948100  1
  O  O1073  1  0.29099100  0.03422800  0.66051900  1
  O  O1074  1  0.29099100  0.96577200  0.33948100  1
  O  O1075  1  0.70900900  0.96577200  0.66051900  1
  O  O1076  1  0.53422800  0.16051900  0.29099100  1
  O  O1077  1  0.53422800  0.83948100  0.70900900  1
  O  O1078  1  0.46577200  0.16051900  0.70900900  1
  O  O1079  1  0.46577200  0.83948100  0.29099100  1
  O  O1080  1  0.70900900  0.66051900  0.03422800  1
  O  O1081  1  0.29099100  0.33948100  0.03422800  1
  O  O1082  1  0.29099100  0.66051900  0.96577200  1
  O  O1083  1  0.70900900  0.33948100  0.96577200  1
  O  O1084  1  0.53422800  0.70900900  0.16051900  1
  O  O1085  1  0.53422800  0.29099100  0.83948100  1
  O  O1086  1  0.46577200  0.29099100  0.16051900  1
  O  O1087  1  0.46577200  0.70900900  0.83948100  1
  O  O1088  1  0.66051900  0.53422800  0.20900900  1
  O  O1089  1  0.33948100  0.53422800  0.79099100  1
  O  O1090  1  0.66051900  0.46577200  0.79099100  1
  O  O1091  1  0.33948100  0.46577200  0.20900900  1
  O  O1092  1  0.66051900  0.70900900  0.96577200  1
  O  O1093  1  0.33948100  0.29099100  0.96577200  1
  O  O1094  1  0.66051900  0.29099100  0.03422800  1
  O  O1095  1  0.33948100  0.70900900  0.03422800  1
  O  O1096  1  0.70900900  0.53422800  0.83948100  1
  O  O1097  1  0.29099100  0.53422800  0.16051900  1
  O  O1098  1  0.29099100  0.46577200  0.83948100  1
  O  O1099  1  0.70900900  0.46577200  0.16051900  1
  O  O1100  1  0.53422800  0.66051900  0.79099100  1
  O  O1101  1  0.53422800  0.33948100  0.20900900  1
  O  O1102  1  0.46577200  0.66051900  0.20900900  1
  O  O1103  1  0.46577200  0.33948100  0.79099100  1
  O  O1104  1  0.79099100  0.83948100  0.96577200  1
  O  O1105  1  0.20900900  0.16051900  0.96577200  1
  O  O1106  1  0.20900900  0.83948100  0.03422800  1
  O  O1107  1  0.79099100  0.16051900  0.03422800  1
  O  O1108  1  0.96577200  0.79099100  0.83948100  1
  O  O1109  1  0.96577200  0.20900900  0.16051900  1
  O  O1110  1  0.03422800  0.20900900  0.83948100  1
  O  O1111  1  0.03422800  0.79099100  0.16051900  1
  O  O1112  1  0.83948100  0.96577200  0.79099100  1
  O  O1113  1  0.16051900  0.96577200  0.20900900  1
  O  O1114  1  0.83948100  0.03422800  0.20900900  1
  O  O1115  1  0.16051900  0.03422800  0.79099100  1
  O  O1116  1  0.83948100  0.79099100  0.03422800  1
  O  O1117  1  0.16051900  0.20900900  0.03422800  1
  O  O1118  1  0.83948100  0.20900900  0.96577200  1
  O  O1119  1  0.16051900  0.79099100  0.96577200  1
  O  O1120  1  0.79099100  0.96577200  0.16051900  1
  O  O1121  1  0.20900900  0.96577200  0.83948100  1
  O  O1122  1  0.20900900  0.03422800  0.16051900  1
  O  O1123  1  0.79099100  0.03422800  0.83948100  1
  O  O1124  1  0.96577200  0.83948100  0.20900900  1
  O  O1125  1  0.96577200  0.16051900  0.79099100  1
  O  O1126  1  0.03422800  0.83948100  0.79099100  1
  O  O1127  1  0.03422800  0.16051900  0.20900900  1
  O  O1128  1  0.79099100  0.33948100  0.46577200  1
  O  O1129  1  0.20900900  0.66051900  0.46577200  1
  O  O1130  1  0.20900900  0.33948100  0.53422800  1
  O  O1131  1  0.79099100  0.66051900  0.53422800  1
  O  O1132  1  0.96577200  0.29099100  0.33948100  1
  O  O1133  1  0.96577200  0.70900900  0.66051900  1
  O  O1134  1  0.03422800  0.70900900  0.33948100  1
  O  O1135  1  0.03422800  0.29099100  0.66051900  1
  O  O1136  1  0.83948100  0.46577200  0.29099100  1
  O  O1137  1  0.16051900  0.46577200  0.70900900  1
  O  O1138  1  0.83948100  0.53422800  0.70900900  1
  O  O1139  1  0.16051900  0.53422800  0.29099100  1
  O  O1140  1  0.83948100  0.29099100  0.53422800  1
  O  O1141  1  0.16051900  0.70900900  0.53422800  1
  O  O1142  1  0.83948100  0.70900900  0.46577200  1
  O  O1143  1  0.16051900  0.29099100  0.46577200  1
  O  O1144  1  0.79099100  0.46577200  0.66051900  1
  O  O1145  1  0.20900900  0.46577200  0.33948100  1
  O  O1146  1  0.20900900  0.53422800  0.66051900  1
  O  O1147  1  0.79099100  0.53422800  0.33948100  1
  O  O1148  1  0.96577200  0.33948100  0.70900900  1
  O  O1149  1  0.96577200  0.66051900  0.29099100  1
  O  O1150  1  0.03422800  0.33948100  0.29099100  1
  O  O1151  1  0.03422800  0.66051900  0.70900900  1
  O  O1152  1  0.29099100  0.83948100  0.46577200  1
  O  O1153  1  0.70900900  0.16051900  0.46577200  1
  O  O1154  1  0.70900900  0.83948100  0.53422800  1
  O  O1155  1  0.29099100  0.16051900  0.53422800  1
  O  O1156  1  0.46577200  0.79099100  0.33948100  1
  O  O1157  1  0.46577200  0.20900900  0.66051900  1
  O  O1158  1  0.53422800  0.20900900  0.33948100  1
  O  O1159  1  0.53422800  0.79099100  0.66051900  1
  O  O1160  1  0.33948100  0.96577200  0.29099100  1
  O  O1161  1  0.66051900  0.96577200  0.70900900  1
  O  O1162  1  0.33948100  0.03422800  0.70900900  1
  O  O1163  1  0.66051900  0.03422800  0.29099100  1
  O  O1164  1  0.33948100  0.79099100  0.53422800  1
  O  O1165  1  0.66051900  0.20900900  0.53422800  1
  O  O1166  1  0.33948100  0.20900900  0.46577200  1
  O  O1167  1  0.66051900  0.79099100  0.46577200  1
  O  O1168  1  0.29099100  0.96577200  0.66051900  1
  O  O1169  1  0.70900900  0.96577200  0.33948100  1
  O  O1170  1  0.70900900  0.03422800  0.66051900  1
  O  O1171  1  0.29099100  0.03422800  0.33948100  1
  O  O1172  1  0.46577200  0.83948100  0.70900900  1
  O  O1173  1  0.46577200  0.16051900  0.29099100  1
  O  O1174  1  0.53422800  0.83948100  0.29099100  1
  O  O1175  1  0.53422800  0.16051900  0.70900900  1
  O  O1176  1  0.29099100  0.33948100  0.96577200  1
  O  O1177  1  0.70900900  0.66051900  0.96577200  1
  O  O1178  1  0.70900900  0.33948100  0.03422800  1
  O  O1179  1  0.29099100  0.66051900  0.03422800  1
  O  O1180  1  0.46577200  0.29099100  0.83948100  1
  O  O1181  1  0.46577200  0.70900900  0.16051900  1
  O  O1182  1  0.53422800  0.70900900  0.83948100  1
  O  O1183  1  0.53422800  0.29099100  0.16051900  1
  O  O1184  1  0.33948100  0.46577200  0.79099100  1
  O  O1185  1  0.66051900  0.46577200  0.20900900  1
  O  O1186  1  0.33948100  0.53422800  0.20900900  1
  O  O1187  1  0.66051900  0.53422800  0.79099100  1
  O  O1188  1  0.33948100  0.29099100  0.03422800  1
  O  O1189  1  0.66051900  0.70900900  0.03422800  1
  O  O1190  1  0.33948100  0.70900900  0.96577200  1
  O  O1191  1  0.66051900  0.29099100  0.96577200  1
  O  O1192  1  0.29099100  0.46577200  0.16051900  1
  O  O1193  1  0.70900900  0.46577200  0.83948100  1
  O  O1194  1  0.70900900  0.53422800  0.16051900  1
  O  O1195  1  0.29099100  0.53422800  0.83948100  1
  O  O1196  1  0.46577200  0.33948100  0.20900900  1
  O  O1197  1  0.46577200  0.66051900  0.79099100  1
  O  O1198  1  0.53422800  0.33948100  0.79099100  1
  O  O1199  1  0.53422800  0.66051900  0.20900900  1
  O  O1200  1  0.22833140  0.22833140  0.04482000  1
  O  O1201  1  0.77166860  0.77166860  0.04482000  1
  O  O1202  1  0.77166860  0.22833140  0.95518000  1
  O  O1203  1  0.22833140  0.77166860  0.95518000  1
  O  O1204  1  0.04482000  0.22833140  0.22833140  1
  O  O1205  1  0.04482000  0.77166860  0.77166860  1
  O  O1206  1  0.95518000  0.77166860  0.22833140  1
  O  O1207  1  0.95518000  0.22833140  0.77166860  1
  O  O1208  1  0.22833140  0.04482000  0.22833140  1
  O  O1209  1  0.77166860  0.04482000  0.77166860  1
  O  O1210  1  0.22833140  0.95518000  0.77166860  1
  O  O1211  1  0.77166860  0.95518000  0.22833140  1
  O  O1212  1  0.22833140  0.22833140  0.95518000  1
  O  O1213  1  0.77166860  0.77166860  0.95518000  1
  O  O1214  1  0.22833140  0.77166860  0.04482000  1
  O  O1215  1  0.77166860  0.22833140  0.04482000  1
  O  O1216  1  0.22833140  0.04482000  0.77166860  1
  O  O1217  1  0.77166860  0.04482000  0.22833140  1
  O  O1218  1  0.77166860  0.95518000  0.77166860  1
  O  O1219  1  0.22833140  0.95518000  0.22833140  1
  O  O1220  1  0.04482000  0.22833140  0.77166860  1
  O  O1221  1  0.04482000  0.77166860  0.22833140  1
  O  O1222  1  0.95518000  0.22833140  0.22833140  1
  O  O1223  1  0.95518000  0.77166860  0.77166860  1
  O  O1224  1  0.22833140  0.72833140  0.54482000  1
  O  O1225  1  0.77166860  0.27166860  0.54482000  1
  O  O1226  1  0.77166860  0.72833140  0.45518000  1
  O  O1227  1  0.22833140  0.27166860  0.45518000  1
  O  O1228  1  0.04482000  0.72833140  0.72833140  1
  O  O1229  1  0.04482000  0.27166860  0.27166860  1
  O  O1230  1  0.95518000  0.27166860  0.72833140  1
  O  O1231  1  0.95518000  0.72833140  0.27166860  1
  O  O1232  1  0.22833140  0.54482000  0.72833140  1
  O  O1233  1  0.77166860  0.54482000  0.27166860  1
  O  O1234  1  0.22833140  0.45518000  0.27166860  1
  O  O1235  1  0.77166860  0.45518000  0.72833140  1
  O  O1236  1  0.22833140  0.72833140  0.45518000  1
  O  O1237  1  0.77166860  0.27166860  0.45518000  1
  O  O1238  1  0.22833140  0.27166860  0.54482000  1
  O  O1239  1  0.77166860  0.72833140  0.54482000  1
  O  O1240  1  0.22833140  0.54482000  0.27166860  1
  O  O1241  1  0.77166860  0.54482000  0.72833140  1
  O  O1242  1  0.77166860  0.45518000  0.27166860  1
  O  O1243  1  0.22833140  0.45518000  0.72833140  1
  O  O1244  1  0.04482000  0.72833140  0.27166860  1
  O  O1245  1  0.04482000  0.27166860  0.72833140  1
  O  O1246  1  0.95518000  0.72833140  0.72833140  1
  O  O1247  1  0.95518000  0.27166860  0.27166860  1
  O  O1248  1  0.72833140  0.22833140  0.54482000  1
  O  O1249  1  0.27166860  0.77166860  0.54482000  1
  O  O1250  1  0.27166860  0.22833140  0.45518000  1
  O  O1251  1  0.72833140  0.77166860  0.45518000  1
  O  O1252  1  0.54482000  0.22833140  0.72833140  1
  O  O1253  1  0.54482000  0.77166860  0.27166860  1
  O  O1254  1  0.45518000  0.77166860  0.72833140  1
  O  O1255  1  0.45518000  0.22833140  0.27166860  1
  O  O1256  1  0.72833140  0.04482000  0.72833140  1
  O  O1257  1  0.27166860  0.04482000  0.27166860  1
  O  O1258  1  0.72833140  0.95518000  0.27166860  1
  O  O1259  1  0.27166860  0.95518000  0.72833140  1
  O  O1260  1  0.72833140  0.22833140  0.45518000  1
  O  O1261  1  0.27166860  0.77166860  0.45518000  1
  O  O1262  1  0.72833140  0.77166860  0.54482000  1
  O  O1263  1  0.27166860  0.22833140  0.54482000  1
  O  O1264  1  0.72833140  0.04482000  0.27166860  1
  O  O1265  1  0.27166860  0.04482000  0.72833140  1
  O  O1266  1  0.27166860  0.95518000  0.27166860  1
  O  O1267  1  0.72833140  0.95518000  0.72833140  1
  O  O1268  1  0.54482000  0.22833140  0.27166860  1
  O  O1269  1  0.54482000  0.77166860  0.72833140  1
  O  O1270  1  0.45518000  0.22833140  0.72833140  1
  O  O1271  1  0.45518000  0.77166860  0.27166860  1
  O  O1272  1  0.72833140  0.72833140  0.04482000  1
  O  O1273  1  0.27166860  0.27166860  0.04482000  1
  O  O1274  1  0.27166860  0.72833140  0.95518000  1
  O  O1275  1  0.72833140  0.27166860  0.95518000  1
  O  O1276  1  0.54482000  0.72833140  0.22833140  1
  O  O1277  1  0.54482000  0.27166860  0.77166860  1
  O  O1278  1  0.45518000  0.27166860  0.22833140  1
  O  O1279  1  0.45518000  0.72833140  0.77166860  1
  O  O1280  1  0.72833140  0.54482000  0.22833140  1
  O  O1281  1  0.27166860  0.54482000  0.77166860  1
  O  O1282  1  0.72833140  0.45518000  0.77166860  1
  O  O1283  1  0.27166860  0.45518000  0.22833140  1
  O  O1284  1  0.72833140  0.72833140  0.95518000  1
  O  O1285  1  0.27166860  0.27166860  0.95518000  1
  O  O1286  1  0.72833140  0.27166860  0.04482000  1
  O  O1287  1  0.27166860  0.72833140  0.04482000  1
  O  O1288  1  0.72833140  0.54482000  0.77166860  1
  O  O1289  1  0.27166860  0.54482000  0.22833140  1
  O  O1290  1  0.27166860  0.45518000  0.77166860  1
  O  O1291  1  0.72833140  0.45518000  0.22833140  1
  O  O1292  1  0.54482000  0.72833140  0.77166860  1
  O  O1293  1  0.54482000  0.27166860  0.22833140  1
  O  O1294  1  0.45518000  0.72833140  0.22833140  1
  O  O1295  1  0.45518000  0.27166860  0.77166860  1
  O  O1296  1  0.25748120  0.16876120  0.06406130  1
  O  O1297  1  0.74251880  0.83123880  0.06406130  1
  O  O1298  1  0.74251880  0.16876120  0.93593870  1
  O  O1299  1  0.25748120  0.83123880  0.93593870  1
  O  O1300  1  0.06406130  0.25748120  0.16876120  1
  O  O1301  1  0.06406130  0.74251880  0.83123880  1
  O  O1302  1  0.93593870  0.74251880  0.16876120  1
  O  O1303  1  0.93593870  0.25748120  0.83123880  1
  O  O1304  1  0.16876120  0.06406130  0.25748120  1
  O  O1305  1  0.83123880  0.06406130  0.74251880  1
  O  O1306  1  0.16876120  0.93593870  0.74251880  1
  O  O1307  1  0.83123880  0.93593870  0.25748120  1
  O  O1308  1  0.16876120  0.25748120  0.93593870  1
  O  O1309  1  0.83123880  0.74251880  0.93593870  1
  O  O1310  1  0.16876120  0.74251880  0.06406130  1
  O  O1311  1  0.83123880  0.25748120  0.06406130  1
  O  O1312  1  0.25748120  0.06406130  0.83123880  1
  O  O1313  1  0.74251880  0.06406130  0.16876120  1
  O  O1314  1  0.74251880  0.93593870  0.83123880  1
  O  O1315  1  0.25748120  0.93593870  0.16876120  1
  O  O1316  1  0.06406130  0.16876120  0.74251880  1
  O  O1317  1  0.06406130  0.83123880  0.25748120  1
  O  O1318  1  0.93593870  0.16876120  0.25748120  1
  O  O1319  1  0.93593870  0.83123880  0.74251880  1
  O  O1320  1  0.25748120  0.66876120  0.56406130  1
  O  O1321  1  0.74251880  0.33123880  0.56406130  1
  O  O1322  1  0.74251880  0.66876120  0.43593870  1
  O  O1323  1  0.25748120  0.33123880  0.43593870  1
  O  O1324  1  0.06406130  0.75748120  0.66876120  1
  O  O1325  1  0.06406130  0.24251880  0.33123880  1
  O  O1326  1  0.93593870  0.24251880  0.66876120  1
  O  O1327  1  0.93593870  0.75748120  0.33123880  1
  O  O1328  1  0.16876120  0.56406130  0.75748120  1
  O  O1329  1  0.83123880  0.56406130  0.24251880  1
  O  O1330  1  0.16876120  0.43593870  0.24251880  1
  O  O1331  1  0.83123880  0.43593870  0.75748120  1
  O  O1332  1  0.16876120  0.75748120  0.43593870  1
  O  O1333  1  0.83123880  0.24251880  0.43593870  1
  O  O1334  1  0.16876120  0.24251880  0.56406130  1
  O  O1335  1  0.83123880  0.75748120  0.56406130  1
  O  O1336  1  0.25748120  0.56406130  0.33123880  1
  O  O1337  1  0.74251880  0.56406130  0.66876120  1
  O  O1338  1  0.74251880  0.43593870  0.33123880  1
  O  O1339  1  0.25748120  0.43593870  0.66876120  1
  O  O1340  1  0.06406130  0.66876120  0.24251880  1
  O  O1341  1  0.06406130  0.33123880  0.75748120  1
  O  O1342  1  0.93593870  0.66876120  0.75748120  1
  O  O1343  1  0.93593870  0.33123880  0.24251880  1
  O  O1344  1  0.75748120  0.16876120  0.56406130  1
  O  O1345  1  0.24251880  0.83123880  0.56406130  1
  O  O1346  1  0.24251880  0.16876120  0.43593870  1
  O  O1347  1  0.75748120  0.83123880  0.43593870  1
  O  O1348  1  0.56406130  0.25748120  0.66876120  1
  O  O1349  1  0.56406130  0.74251880  0.33123880  1
  O  O1350  1  0.43593870  0.74251880  0.66876120  1
  O  O1351  1  0.43593870  0.25748120  0.33123880  1
  O  O1352  1  0.66876120  0.06406130  0.75748120  1
  O  O1353  1  0.33123880  0.06406130  0.24251880  1
  O  O1354  1  0.66876120  0.93593870  0.24251880  1
  O  O1355  1  0.33123880  0.93593870  0.75748120  1
  O  O1356  1  0.66876120  0.25748120  0.43593870  1
  O  O1357  1  0.33123880  0.74251880  0.43593870  1
  O  O1358  1  0.66876120  0.74251880  0.56406130  1
  O  O1359  1  0.33123880  0.25748120  0.56406130  1
  O  O1360  1  0.75748120  0.06406130  0.33123880  1
  O  O1361  1  0.24251880  0.06406130  0.66876120  1
  O  O1362  1  0.24251880  0.93593870  0.33123880  1
  O  O1363  1  0.75748120  0.93593870  0.66876120  1
  O  O1364  1  0.56406130  0.16876120  0.24251880  1
  O  O1365  1  0.56406130  0.83123880  0.75748120  1
  O  O1366  1  0.43593870  0.16876120  0.75748120  1
  O  O1367  1  0.43593870  0.83123880  0.24251880  1
  O  O1368  1  0.75748120  0.66876120  0.06406130  1
  O  O1369  1  0.24251880  0.33123880  0.06406130  1
  O  O1370  1  0.24251880  0.66876120  0.93593870  1
  O  O1371  1  0.75748120  0.33123880  0.93593870  1
  O  O1372  1  0.56406130  0.75748120  0.16876120  1
  O  O1373  1  0.56406130  0.24251880  0.83123880  1
  O  O1374  1  0.43593870  0.24251880  0.16876120  1
  O  O1375  1  0.43593870  0.75748120  0.83123880  1
  O  O1376  1  0.66876120  0.56406130  0.25748120  1
  O  O1377  1  0.33123880  0.56406130  0.74251880  1
  O  O1378  1  0.66876120  0.43593870  0.74251880  1
  O  O1379  1  0.33123880  0.43593870  0.25748120  1
  O  O1380  1  0.66876120  0.75748120  0.93593870  1
  O  O1381  1  0.33123880  0.24251880  0.93593870  1
  O  O1382  1  0.66876120  0.24251880  0.06406130  1
  O  O1383  1  0.33123880  0.75748120  0.06406130  1
  O  O1384  1  0.75748120  0.56406130  0.83123880  1
  O  O1385  1  0.24251880  0.56406130  0.16876120  1
  O  O1386  1  0.24251880  0.43593870  0.83123880  1
  O  O1387  1  0.75748120  0.43593870  0.16876120  1
  O  O1388  1  0.56406130  0.66876120  0.74251880  1
  O  O1389  1  0.56406130  0.33123880  0.25748120  1
  O  O1390  1  0.43593870  0.66876120  0.25748120  1
  O  O1391  1  0.43593870  0.33123880  0.74251880  1
  O  O1392  1  0.74251880  0.83123880  0.93593870  1
  O  O1393  1  0.25748120  0.16876120  0.93593870  1
  O  O1394  1  0.25748120  0.83123880  0.06406130  1
  O  O1395  1  0.74251880  0.16876120  0.06406130  1
  O  O1396  1  0.93593870  0.74251880  0.83123880  1
  O  O1397  1  0.93593870  0.25748120  0.16876120  1
  O  O1398  1  0.06406130  0.25748120  0.83123880  1
  O  O1399  1  0.06406130  0.74251880  0.16876120  1
  O  O1400  1  0.83123880  0.93593870  0.74251880  1
  O  O1401  1  0.16876120  0.93593870  0.25748120  1
  O  O1402  1  0.83123880  0.06406130  0.25748120  1
  O  O1403  1  0.16876120  0.06406130  0.74251880  1
  O  O1404  1  0.83123880  0.74251880  0.06406130  1
  O  O1405  1  0.16876120  0.25748120  0.06406130  1
  O  O1406  1  0.83123880  0.25748120  0.93593870  1
  O  O1407  1  0.16876120  0.74251880  0.93593870  1
  O  O1408  1  0.74251880  0.93593870  0.16876120  1
  O  O1409  1  0.25748120  0.93593870  0.83123880  1
  O  O1410  1  0.25748120  0.06406130  0.16876120  1
  O  O1411  1  0.74251880  0.06406130  0.83123880  1
  O  O1412  1  0.93593870  0.83123880  0.25748120  1
  O  O1413  1  0.93593870  0.16876120  0.74251880  1
  O  O1414  1  0.06406130  0.83123880  0.74251880  1
  O  O1415  1  0.06406130  0.16876120  0.25748120  1
  O  O1416  1  0.74251880  0.33123880  0.43593870  1
  O  O1417  1  0.25748120  0.66876120  0.43593870  1
  O  O1418  1  0.25748120  0.33123880  0.56406130  1
  O  O1419  1  0.74251880  0.66876120  0.56406130  1
  O  O1420  1  0.93593870  0.24251880  0.33123880  1
  O  O1421  1  0.93593870  0.75748120  0.66876120  1
  O  O1422  1  0.06406130  0.75748120  0.33123880  1
  O  O1423  1  0.06406130  0.24251880  0.66876120  1
  O  O1424  1  0.83123880  0.43593870  0.24251880  1
  O  O1425  1  0.16876120  0.43593870  0.75748120  1
  O  O1426  1  0.83123880  0.56406130  0.75748120  1
  O  O1427  1  0.16876120  0.56406130  0.24251880  1
  O  O1428  1  0.83123880  0.24251880  0.56406130  1
  O  O1429  1  0.16876120  0.75748120  0.56406130  1
  O  O1430  1  0.83123880  0.75748120  0.43593870  1
  O  O1431  1  0.16876120  0.24251880  0.43593870  1
  O  O1432  1  0.74251880  0.43593870  0.66876120  1
  O  O1433  1  0.25748120  0.43593870  0.33123880  1
  O  O1434  1  0.25748120  0.56406130  0.66876120  1
  O  O1435  1  0.74251880  0.56406130  0.33123880  1
  O  O1436  1  0.93593870  0.33123880  0.75748120  1
  O  O1437  1  0.93593870  0.66876120  0.24251880  1
  O  O1438  1  0.06406130  0.33123880  0.24251880  1
  O  O1439  1  0.06406130  0.66876120  0.75748120  1
  O  O1440  1  0.24251880  0.83123880  0.43593870  1
  O  O1441  1  0.75748120  0.16876120  0.43593870  1
  O  O1442  1  0.75748120  0.83123880  0.56406130  1
  O  O1443  1  0.24251880  0.16876120  0.56406130  1
  O  O1444  1  0.43593870  0.74251880  0.33123880  1
  O  O1445  1  0.43593870  0.25748120  0.66876120  1
  O  O1446  1  0.56406130  0.25748120  0.33123880  1
  O  O1447  1  0.56406130  0.74251880  0.66876120  1
  O  O1448  1  0.33123880  0.93593870  0.24251880  1
  O  O1449  1  0.66876120  0.93593870  0.75748120  1
  O  O1450  1  0.33123880  0.06406130  0.75748120  1
  O  O1451  1  0.66876120  0.06406130  0.24251880  1
  O  O1452  1  0.33123880  0.74251880  0.56406130  1
  O  O1453  1  0.66876120  0.25748120  0.56406130  1
  O  O1454  1  0.33123880  0.25748120  0.43593870  1
  O  O1455  1  0.66876120  0.74251880  0.43593870  1
  O  O1456  1  0.24251880  0.93593870  0.66876120  1
  O  O1457  1  0.75748120  0.93593870  0.33123880  1
  O  O1458  1  0.75748120  0.06406130  0.66876120  1
  O  O1459  1  0.24251880  0.06406130  0.33123880  1
  O  O1460  1  0.43593870  0.83123880  0.75748120  1
  O  O1461  1  0.43593870  0.16876120  0.24251880  1
  O  O1462  1  0.56406130  0.83123880  0.24251880  1
  O  O1463  1  0.56406130  0.16876120  0.75748120  1
  O  O1464  1  0.24251880  0.33123880  0.93593870  1
  O  O1465  1  0.75748120  0.66876120  0.93593870  1
  O  O1466  1  0.75748120  0.33123880  0.06406130  1
  O  O1467  1  0.24251880  0.66876120  0.06406130  1
  O  O1468  1  0.43593870  0.24251880  0.83123880  1
  O  O1469  1  0.43593870  0.75748120  0.16876120  1
  O  O1470  1  0.56406130  0.75748120  0.83123880  1
  O  O1471  1  0.56406130  0.24251880  0.16876120  1
  O  O1472  1  0.33123880  0.43593870  0.74251880  1
  O  O1473  1  0.66876120  0.43593870  0.25748120  1
  O  O1474  1  0.33123880  0.56406130  0.25748120  1
  O  O1475  1  0.66876120  0.56406130  0.74251880  1
  O  O1476  1  0.33123880  0.24251880  0.06406130  1
  O  O1477  1  0.66876120  0.75748120  0.06406130  1
  O  O1478  1  0.33123880  0.75748120  0.93593870  1
  O  O1479  1  0.66876120  0.24251880  0.93593870  1
  O  O1480  1  0.24251880  0.43593870  0.16876120  1
  O  O1481  1  0.75748120  0.43593870  0.83123880  1
  O  O1482  1  0.75748120  0.56406130  0.16876120  1
  O  O1483  1  0.24251880  0.56406130  0.83123880  1
  O  O1484  1  0.43593870  0.33123880  0.25748120  1
  O  O1485  1  0.43593870  0.66876120  0.74251880  1
  O  O1486  1  0.56406130  0.33123880  0.74251880  1
  O  O1487  1  0.56406130  0.66876120  0.25748120  1
  O  O1680  1  0.23986150  0.30362000  0.00000000  1
  O  O1681  1  0.76013850  0.69638000  0.00000000  1
  O  O1682  1  0.76013850  0.30362000  0.00000000  1
  O  O1683  1  0.23986150  0.69638000  0.00000000  1
  O  O1684  1  0.00000000  0.23986150  0.30362000  1
  O  O1685  1  0.00000000  0.76013850  0.69638000  1
  O  O1686  1  0.00000000  0.76013850  0.30362000  1
  O  O1687  1  0.00000000  0.23986150  0.69638000  1
  O  O1688  1  0.30362000  0.00000000  0.23986150  1
  O  O1689  1  0.69638000  0.00000000  0.76013850  1
  O  O1690  1  0.30362000  0.00000000  0.76013850  1
  O  O1691  1  0.69638000  0.00000000  0.23986150  1
  O  O1692  1  0.30362000  0.23986150  0.00000000  1
  O  O1693  1  0.69638000  0.76013850  0.00000000  1
  O  O1694  1  0.30362000  0.76013850  0.00000000  1
  O  O1695  1  0.69638000  0.23986150  0.00000000  1
  O  O1696  1  0.23986150  0.00000000  0.69638000  1
  O  O1697  1  0.76013850  0.00000000  0.30362000  1
  O  O1698  1  0.76013850  0.00000000  0.69638000  1
  O  O1699  1  0.23986150  0.00000000  0.30362000  1
  O  O1700  1  0.00000000  0.30362000  0.76013850  1
  O  O1701  1  0.00000000  0.69638000  0.23986150  1
  O  O1702  1  0.00000000  0.30362000  0.23986150  1
  O  O1703  1  0.00000000  0.69638000  0.76013850  1
  O  O1704  1  0.23986150  0.80362000  0.50000000  1
  O  O1705  1  0.76013850  0.19638000  0.50000000  1
  O  O1706  1  0.76013850  0.80362000  0.50000000  1
  O  O1707  1  0.23986150  0.19638000  0.50000000  1
  O  O1708  1  0.00000000  0.73986150  0.80362000  1
  O  O1709  1  0.00000000  0.26013850  0.19638000  1
  O  O1710  1  0.00000000  0.26013850  0.80362000  1
  O  O1711  1  0.00000000  0.73986150  0.19638000  1
  O  O1712  1  0.30362000  0.50000000  0.73986150  1
  O  O1713  1  0.69638000  0.50000000  0.26013850  1
  O  O1714  1  0.30362000  0.50000000  0.26013850  1
  O  O1715  1  0.69638000  0.50000000  0.73986150  1
  O  O1716  1  0.30362000  0.73986150  0.50000000  1
  O  O1717  1  0.69638000  0.26013850  0.50000000  1
  O  O1718  1  0.30362000  0.26013850  0.50000000  1
  O  O1719  1  0.69638000  0.73986150  0.50000000  1
  O  O1720  1  0.23986150  0.50000000  0.19638000  1
  O  O1721  1  0.76013850  0.50000000  0.80362000  1
  O  O1722  1  0.76013850  0.50000000  0.19638000  1
  O  O1723  1  0.23986150  0.50000000  0.80362000  1
  O  O1724  1  0.00000000  0.80362000  0.26013850  1
  O  O1725  1  0.00000000  0.19638000  0.73986150  1
  O  O1726  1  0.00000000  0.80362000  0.73986150  1
  O  O1727  1  0.00000000  0.19638000  0.26013850  1
  O  O1728  1  0.73986150  0.30362000  0.50000000  1
  O  O1729  1  0.26013850  0.69638000  0.50000000  1
  O  O1730  1  0.26013850  0.30362000  0.50000000  1
  O  O1731  1  0.73986150  0.69638000  0.50000000  1
  O  O1732  1  0.50000000  0.23986150  0.80362000  1
  O  O1733  1  0.50000000  0.76013850  0.19638000  1
  O  O1734  1  0.50000000  0.76013850  0.80362000  1
  O  O1735  1  0.50000000  0.23986150  0.19638000  1
  O  O1736  1  0.80362000  0.00000000  0.73986150  1
  O  O1737  1  0.19638000  0.00000000  0.26013850  1
  O  O1738  1  0.80362000  0.00000000  0.26013850  1
  O  O1739  1  0.19638000  0.00000000  0.73986150  1
  O  O1740  1  0.80362000  0.23986150  0.50000000  1
  O  O1741  1  0.19638000  0.76013850  0.50000000  1
  O  O1742  1  0.80362000  0.76013850  0.50000000  1
  O  O1743  1  0.19638000  0.23986150  0.50000000  1
  O  O1744  1  0.73986150  0.00000000  0.19638000  1
  O  O1745  1  0.26013850  0.00000000  0.80362000  1
  O  O1746  1  0.26013850  0.00000000  0.19638000  1
  O  O1747  1  0.73986150  0.00000000  0.80362000  1
  O  O1748  1  0.50000000  0.30362000  0.26013850  1
  O  O1749  1  0.50000000  0.69638000  0.73986150  1
  O  O1750  1  0.50000000  0.30362000  0.73986150  1
  O  O1751  1  0.50000000  0.69638000  0.26013850  1
  O  O1752  1  0.73986150  0.80362000  0.00000000  1
  O  O1753  1  0.26013850  0.19638000  0.00000000  1
  O  O1754  1  0.26013850  0.80362000  0.00000000  1
  O  O1755  1  0.73986150  0.19638000  0.00000000  1
  O  O1756  1  0.50000000  0.73986150  0.30362000  1
  O  O1757  1  0.50000000  0.26013850  0.69638000  1
  O  O1758  1  0.50000000  0.26013850  0.30362000  1
  O  O1759  1  0.50000000  0.73986150  0.69638000  1
  O  O1760  1  0.80362000  0.50000000  0.23986150  1
  O  O1761  1  0.19638000  0.50000000  0.76013850  1
  O  O1762  1  0.80362000  0.50000000  0.76013850  1
  O  O1763  1  0.19638000  0.50000000  0.23986150  1
  O  O1764  1  0.80362000  0.73986150  0.00000000  1
  O  O1765  1  0.19638000  0.26013850  0.00000000  1
  O  O1766  1  0.80362000  0.26013850  0.00000000  1
  O  O1767  1  0.19638000  0.73986150  0.00000000  1
  O  O1768  1  0.73986150  0.50000000  0.69638000  1
  O  O1769  1  0.26013850  0.50000000  0.30362000  1
  O  O1770  1  0.26013850  0.50000000  0.69638000  1
  O  O1771  1  0.73986150  0.50000000  0.30362000  1
  O  O1772  1  0.50000000  0.80362000  0.76013850  1
  O  O1773  1  0.50000000  0.19638000  0.23986150  1
  O  O1774  1  0.50000000  0.80362000  0.23986150  1
  O  O1775  1  0.50000000  0.19638000  0.76013850  1
